<?xml version="1.0" encoding="UTF-8"?>

<!-- generated on 2025-10-27 18:26:44 by Eclipse SUMO netedit Version 1.24.0
<neteditConfiguration xmlns:xsi="http://www.w3.org/2001/XMLSchema-instance" xsi:noNamespaceSchemaLocation="http://sumo.dlr.de/xsd/neteditConfiguration.xsd">

    <input>
        <sumo-net-file value="D:\VGU\3rd Year\WS2025 - Exchange Semester\OOP Java\ProjectTesting\helloWorld.net.xml"/>
    </input>

    <output>
        <output-file value="D:\VGU\3rd Year\WS2025 - Exchange Semester\OOP Java\ProjectTesting\helloWorld.net.xml"/>
    </output>

    <processing>
        <offset.disable-normalization value="true"/>
    </processing>

    <junctions>
        <no-turnarounds value="true"/>
    </junctions>

    <netedit>
        <new-network value="false"/>
    </netedit>

</neteditConfiguration>
-->

<net version="1.20" junctionCornerDetail="5" limitTurnSpeed="5.50" xmlns:xsi="http://www.w3.org/2001/XMLSchema-instance" xsi:noNamespaceSchemaLocation="http://sumo.dlr.de/xsd/net_file.xsd">

    <location netOffset="0.00,0.00" convBoundary="-100.00,50.00,100.00,50.00" origBoundary="10000000000.00,10000000000.00,-10000000000.00,-10000000000.00" projParameter="!"/>

    <edge id=":2_0" function="internal">
        <lane id=":2_0_0" index="0" speed="13.89" length="0.10" shape="0.00,48.40 0.00,48.40"/>
    </edge>

    <edge id="E0" from="1" to="2" priority="-1">
        <lane id="E0_0" index="0" speed="13.89" length="100.00" shape="-100.00,48.40 0.00,48.40"/>
    </edge>
    <edge id="E1" from="2" to="3" priority="-1">
        <lane id="E1_0" index="0" speed="13.89" length="100.00" shape="0.00,48.40 100.00,48.40"/>
    </edge>

    <junction id="1" type="dead_end" x="-100.00" y="50.00" incLanes="" intLanes="" shape="-100.00,50.00 -100.00,46.80"/>
    <junction id="2" type="traffic_light" x="0.00" y="50.00" incLanes="E0_0" intLanes=":2_0_0" shape="0.00,50.00 0.00,46.80 0.00,50.00">
        <request index="0" response="0" foes="0" cont="0"/>
    </junction>
    <tlLogic id="gneJ1" type="static" programID="0" offset="0">
        <phase duration="30" state="Gr"/>  <!-- Green on E0 -->
        <phase duration="10" state="yr"/>  <!-- Yellow on E0 -->
        <phase duration="30" state="rG"/>  <!-- Green on E1 -->
        <phase duration="10" state="ry"/>  <!-- Yellow on E1 -->
    </tlLogic>
    <junction id="3" type="dead_end" x="100.00" y="50.00" incLanes="E1_0" intLanes="" shape="100.00,46.80 100.00,50.00"/>

    <connection from="E0" to="E1" fromLane="0" toLane="0" via=":2_0_0" dir="s" state="M"/>

    <connection from=":2_0" to="E1" fromLane="0" toLane="0" dir="s" state="M"/>

</net>
