<?xml version="1.0" encoding="UTF-8"?>

<!-- generated on 2025-11-17 18:49:22 by Eclipse SUMO netedit Version 1.24.0
-->

<routes xmlns:xsi="http://www.w3.org/2001/XMLSchema-instance" xsi:noNamespaceSchemaLocation="http://sumo.dlr.de/xsd/routes_file.xsd">
    <!-- VTypes -->
    <vType id="emergency" vClass="emergency"/>
    <!-- Vehicles, persons and containers (sorted by depart) -->
    <flow id="f_0" begin="0.00" from="-E1" to="E4" via="E1 -E2 E2 -E3 E3 -E4" end="3600.00" vehsPerHour="100"/>
    <flow id="f_1" type="emergency" begin="0.00" from="E1" to="E2" via="-E1 E1 -E2" end="3600.00" vehsPerHour="50"/>
    <personFlow id="pf_0" begin="0.00" end="3600.00" personsPerHour="1800">
        <personTrip from="-E1" to="E1"/>
    </personFlow>
    <personFlow id="pf_1" begin="0.00" end="3600.00" personsPerHour="1800">
        <personTrip from="E2" to="E7"/>
    </personFlow>
    <personFlow id="pf_2" begin="0.00" end="3600.00" personsPerHour="1800">
        <personTrip from="E7" to="-E7"/>
    </personFlow>
    <personFlow id="pf_3" begin="0.00" end="3600.00" personsPerHour="1800">
        <personTrip from="-E7" to="-E2"/>
    </personFlow>
</routes>
