<?xml version="1.0" encoding="UTF-8"?>

<!-- generated on 2025-12-10 13:05:50 by Eclipse SUMO sumo Version 1.24.0
-->

<sumoConfiguration xmlns:xsi="http://www.w3.org/2001/XMLSchema-instance" xsi:noNamespaceSchemaLocation="http://sumo.dlr.de/xsd/sumoConfiguration.xsd">

    <input>
        <net-file value="simpfi_new.net.xml"/>
        <route-files value="simpfi_new.rou.xml"/>
    </input>

</sumoConfiguration>
