<?xml version="1.0" encoding="UTF-8"?>

<!-- generated on 2025-11-26 12:32:28 by Eclipse SUMO netedit Version 1.24.0
-->

<routes xmlns:xsi="http://www.w3.org/2001/XMLSchema-instance" xsi:noNamespaceSchemaLocation="http://sumo.dlr.de/xsd/routes_file.xsd">
    <!-- VTypes -->
    <!-- Core vehicle classes -->
    <vType  id="private" sigma = "0" minGap = "1" length = "3" tau = "0.2" vClass="private"/>
    <vType id="emergency" sigma = "0" minGap = "1" length = "3" tau = "0.5" vClass="emergency"/>
    <vType id="bus" sigma = "0" minGap = "1" length = "3" tau = "0.5" vClass="bus"/>
    <vType id="truck" sigma = "0" minGap = "1" length = "3" tau = "0.5" vClass="truck"/>
    <vType id="motorcycle" sigma = "0" minGap = "1" length = "3" tau = "0.5" vClass="motorcycle"/>

    <!-- Routes -->
    <route id="r_0" edges="E47 E46 E45 E45.12 E45.35 E30 E4 E6 E7 E8 E9"/>
    <route id="r_1" edges="E49 E46 E45 E45.12 E45.35 E30 E4 E6 E7 -E22 E34 E37 E38"/>
    <route id="r_10" edges="E19 E21 E22 -E7 -E6 -E4 -E30 -E45 -E45.73 -E45.103 -E0"/>
    <route id="r_11" edges="E16 E18 E20 E21 E22 -E7 -E6 -E4 -E30 -E45 -E45.73 -E45.103 -E0"/>
    <route id="r_12" edges="E12 E11 -E8 -E7 -E6 -E4 -E30 -E45 -E45.73 -E45.103 -E0"/>
    <route id="r_13" edges="E12 E11 -E8 -E7 -E6 -E4 -E30 -E45 -E45.73 -E26 E1"/>
    <route id="r_2" edges="E0 E45 E45.12 E45.35 E43 E44 -E37 -E35 -E21 -E20 -E18 E17 E15 E13 E11 -E8 -E7 -E6 -E4 -E30 -E45 -E45.73 -E45.103 -E46 -E48"/>
    <route id="r_3" edges="E50 E55 E44 -E37 -E36 -E7 -E6 -E4 -E30 E43 E44 E38"/>
    <route id="r_4" edges="-E59 -E57 E55 -E43 E30 E4 E6 E7 -E22 -E21 -E20 -E18 E17 E15 E13 E11 -E8 -E7 -E6 -E4 -E30 E43 E44 E38"/>
    <route id="r_5" edges="-E38 -E37 -E36 -E22 E34 E37 -E44 -E55 -E53"/>
    <route id="r_6" edges="E3 E6 E7 -E22 E34 E37 -E44 -E43 E30 E4 -E3"/>
    <route id="r_7" edges="E5 E7 E8 -E11 -E13 -E15 -E17 E18 E20 E21 E22 -E7 -E6 -E4 E39 E41 E42 -E43 E30 E4 E6 -E5"/>
    <route id="r_8" edges="E24 E63 E62 E4 E6 E7 -E22 E34 E37 -E44 -E43 -E45 -E45.73 -E45.103 -E0"/>
    <route id="r_9" edges="E28 E63 E62 -E30 E43 E44 -E37 -E35 E22 -E7 -E6 -E4 -E30 -E45 -E45.73 -E45.103 -E46 -E47"/>
</routes>
