<?xml version="1.0" encoding="UTF-8"?>

<!-- generated on 2025-11-26 00:47:52 by Eclipse SUMO netedit Version 1.24.0
-->

<routes xmlns:xsi="http://www.w3.org/2001/XMLSchema-instance" xsi:noNamespaceSchemaLocation="http://sumo.dlr.de/xsd/routes_file.xsd">
    <!-- Routes -->
    <route id="r_0" edges="E14 E15 E13 E11 -E8 E36 E37 E38"/>
    <route id="r_1" edges="E16 E17 E15 E13 E11 -E8 -E7 -E6 -E4 -E30 E43 E44 E38"/>
    <route id="r_10" edges="E28 E63 E62 E4 E6 E7 E8 E9 E10"/>
    <route id="r_11" edges="E5 -E6 -E4 E39 E41 E42 E44 E38"/>
    <route id="r_12" edges="E3 E6 E7 E8 E9 E10"/>
    <route id="r_2" edges="E16 E18 E20 E21 E22 -E7 -E6 -E4 E39 E41 E42 E44 E38"/>
    <route id="r_3" edges="E19 E21 E34 E35 E37 E38"/>
    <route id="r_4" edges="E50 E51 E52 E53 E55 -E42 -E41 -E39 E4 E6 E7 E8 E9 E10"/>
    <route id="r_5" edges="E49 E48 E46 E45 E30 E4 E6 E7 E8 E9 E10"/>
    <route id="r_6" edges="E47 E46 E45 E30 E4 E6 E7 E8 E9 E10"/>
    <route id="r_7" edges="E24 E63 E62 E39 E41 E42 -E55 E57 E58 E59"/>
    <route id="r_8" edges="E40 -E39 -E30 E43 -E55 E57 E58 E59"/>
    <route id="r_9" edges="E12 E11 -E8 E36 E37 E38"/>
</routes>
