<?xml version="1.0" encoding="UTF-8"?>

<!-- generated on 2025-12-04 21:31:11 by Eclipse SUMO netedit Version 1.24.0
<neteditConfiguration xmlns:xsi="http://www.w3.org/2001/XMLSchema-instance" xsi:noNamespaceSchemaLocation="http://sumo.dlr.de/xsd/neteditConfiguration.xsd">

    <input>
        <sumocfg-file value="C:\Users\khanh\git\simpfi3\src\main\resources\SumoConfig\simpfi_new.sumocfg"/>
        <route-files value="C:\Users\khanh\git\simpfi3\src\main\resources\SumoConfig\simpfi_new.rou.xml"/>
        <sumo-net-file value="C:\Users\khanh\git\simpfi3\src\main\resources\SumoConfig\simpfi_new.net.xml"/>
    </input>

    <output>
        <output-file value="C:\Users\khanh\git\simpfi3\src\main\resources\SumoConfig\simpfi_new.net.xml"/>
    </output>

    <processing>
        <geometry.min-radius.fix.railways value="false"/>
        <geometry.avoid-overlap value="false"/>
        <geometry.max-grade.fix value="false"/>
        <offset.disable-normalization value="true"/>
        <lefthand value="0"/>
    </processing>

    <junctions>
        <no-turnarounds value="true"/>
        <junctions.corner-detail value="5"/>
        <junctions.limit-turn-speed value="5.50"/>
        <rectangular-lane-cut value="0"/>
    </junctions>

    <pedestrian>
        <walkingareas value="0"/>
    </pedestrian>

    <netedit>
        <ignore.routeelements value="false"/>
    </netedit>

</neteditConfiguration>
-->

<net version="1.20" junctionCornerDetail="5" limitTurnSpeed="5.50" avoidOverlap="0" xmlns:xsi="http://www.w3.org/2001/XMLSchema-instance" xsi:noNamespaceSchemaLocation="http://sumo.dlr.de/xsd/net_file.xsd">

    <location netOffset="0.00,0.00" convBoundary="-215.00,-120.00,200.00,150.00" origBoundary="-10000000000.00,-10000000000.00,10000000000.00,10000000000.00" projParameter="!"/>

    <edge id=":J0_0" function="internal">
        <lane id=":J0_0_0" index="0" speed="6.51" length="9.03" shape="-8.00,13.60 -8.35,11.15 -9.40,9.40 -11.15,8.35 -13.60,8.00"/>
    </edge>
    <edge id=":J0_1" function="internal">
        <lane id=":J0_1_0" index="0" speed="13.89" length="22.60" shape="-4.80,13.60 -4.80,-9.00"/>
    </edge>
    <edge id=":J0_2" function="internal">
        <lane id=":J0_2_0" index="0" speed="10.36" length="24.51" shape="-1.60,13.60 -0.65,6.95 2.20,2.20 6.95,-0.65 13.60,-1.60"/>
    </edge>
    <edge id=":J0_3" function="internal">
        <lane id=":J0_3_0" index="0" speed="6.51" length="9.03" shape="13.60,8.00 11.15,8.35 9.40,9.40 8.35,11.15 8.00,13.60"/>
    </edge>
    <edge id=":J0_4" function="internal">
        <lane id=":J0_4_0" index="0" speed="13.89" length="27.20" shape="13.60,4.80 -13.60,4.80"/>
    </edge>
    <edge id=":J0_5" function="internal">
        <lane id=":J0_5_0" index="0" speed="9.61" length="13.20" shape="13.60,1.60 6.95,0.94 2.20,-1.05 1.31,-2.09"/>
    </edge>
    <edge id=":J0_12" function="internal">
        <lane id=":J0_12_0" index="0" speed="9.61" length="7.74" shape="1.31,-2.09 -0.65,-4.36 -1.60,-9.00"/>
    </edge>
    <edge id=":J0_6" function="internal">
        <lane id=":J0_6_0" index="0" speed="5.38" length="5.83" shape="8.00,-9.00 8.73,-8.42 10.43,-8.12 12.30,-8.02 13.60,-8.00"/>
    </edge>
    <edge id=":J0_7" function="internal">
        <lane id=":J0_7_0" index="0" speed="13.89" length="22.60" shape="4.80,-9.00 4.80,13.60"/>
    </edge>
    <edge id=":J0_8" function="internal">
        <lane id=":J0_8_0" index="0" speed="9.61" length="20.94" shape="1.60,-9.00 0.65,-4.36 -2.20,-1.05 -6.95,0.94 -13.60,1.60"/>
    </edge>
    <edge id=":J0_9" function="internal">
        <lane id=":J0_9_0" index="0" speed="5.38" length="5.83" shape="-13.60,-8.00 -12.30,-8.02 -10.42,-8.12 -8.73,-8.42 -8.00,-9.00"/>
    </edge>
    <edge id=":J0_10" function="internal">
        <lane id=":J0_10_0" index="0" speed="13.89" length="27.20" shape="-13.60,-4.80 13.60,-4.80"/>
    </edge>
    <edge id=":J0_11" function="internal">
        <lane id=":J0_11_0" index="0" speed="10.36" length="12.07" shape="-13.60,-1.60 -6.95,-0.65 -2.36,2.10"/>
    </edge>
    <edge id=":J0_13" function="internal">
        <lane id=":J0_13_0" index="0" speed="10.36" length="12.44" shape="-2.36,2.10 -2.20,2.20 0.65,6.95 1.60,13.60"/>
    </edge>
    <edge id=":J12_0" function="internal">
        <lane id=":J12_0_0" index="0" speed="13.89" length="20.30" shape="-118.00,90.40 -118.00,70.10"/>
        <lane id=":J12_0_1" index="1" speed="13.89" length="20.30" shape="-114.80,90.40 -114.80,70.10"/>
    </edge>
    <edge id=":J12_2" function="internal">
        <lane id=":J12_2_0" index="0" speed="9.84" length="4.01" shape="-111.60,90.40 -110.89,86.45"/>
    </edge>
    <edge id=":J12_9" function="internal">
        <lane id=":J12_9_0" index="0" speed="9.84" length="17.98" shape="-110.89,86.45 -110.65,85.15 -107.80,81.40 -103.05,79.15 -96.40,78.40"/>
    </edge>
    <edge id=":J12_3" function="internal">
        <lane id=":J12_3_0" index="0" speed="6.51" length="9.03" shape="-96.40,84.80 -98.85,85.15 -100.60,86.20 -101.65,87.95 -102.00,90.40"/>
    </edge>
    <edge id=":J12_4" function="internal">
        <lane id=":J12_4_0" index="0" speed="10.33" length="24.37" shape="-96.40,81.60 -104.45,80.88 -110.20,78.72 -113.65,75.13 -114.80,70.10"/>
        <lane id=":J12_4_1" index="1" speed="9.76" length="21.61" shape="-96.40,81.60 -103.05,80.88 -107.80,78.72 -110.65,75.13 -111.60,70.10"/>
    </edge>
    <edge id=":J12_6" function="internal">
        <lane id=":J12_6_0" index="0" speed="6.38" length="8.63" shape="-102.00,70.10 -101.65,72.33 -100.60,73.92 -98.85,74.88 -96.40,75.20"/>
    </edge>
    <edge id=":J12_7" function="internal">
        <lane id=":J12_7_0" index="0" speed="13.89" length="20.30" shape="-105.20,70.10 -105.20,90.40"/>
        <lane id=":J12_7_1" index="1" speed="13.89" length="20.30" shape="-108.40,70.10 -108.40,90.40"/>
    </edge>
    <edge id=":J16_0" function="internal">
        <lane id=":J16_0_0" index="0" speed="6.38" length="8.63" shape="-176.80,133.60 -177.12,131.15 -178.08,129.40 -179.67,128.35 -181.90,128.00"/>
    </edge>
    <edge id=":J16_1" function="internal">
        <lane id=":J16_1_0" index="0" speed="10.41" length="24.73" shape="-173.60,133.60 -172.85,125.55 -170.60,119.80 -166.85,116.35 -161.60,115.20"/>
        <lane id=":J16_1_1" index="1" speed="9.84" length="21.99" shape="-173.60,133.60 -172.85,126.95 -170.60,122.20 -166.85,119.35 -161.60,118.40"/>
    </edge>
    <edge id=":J16_3" function="internal">
        <lane id=":J16_3_0" index="0" speed="6.51" length="9.03" shape="-161.60,128.00 -164.05,128.35 -165.80,129.40 -166.85,131.15 -167.20,133.60"/>
    </edge>
    <edge id=":J16_4" function="internal">
        <lane id=":J16_4_0" index="0" speed="13.89" length="20.30" shape="-161.60,124.80 -181.90,124.80"/>
        <lane id=":J16_4_1" index="1" speed="13.89" length="20.30" shape="-161.60,121.60 -181.90,121.60"/>
    </edge>
    <edge id=":J16_6" function="internal">
        <lane id=":J16_6_0" index="0" speed="13.89" length="20.30" shape="-181.90,112.00 -161.60,112.00"/>
        <lane id=":J16_6_1" index="1" speed="13.89" length="20.30" shape="-181.90,115.20 -161.60,115.20"/>
    </edge>
    <edge id=":J16_8" function="internal">
        <lane id=":J16_8_0" index="0" speed="9.76" length="3.86" shape="-181.90,118.40 -178.11,119.12"/>
    </edge>
    <edge id=":J16_9" function="internal">
        <lane id=":J16_9_0" index="0" speed="9.76" length="17.76" shape="-178.11,119.12 -176.87,119.35 -173.27,122.20 -171.12,126.95 -170.40,133.60"/>
    </edge>
    <edge id=":J18_0" function="internal">
        <lane id=":J18_0_0" index="0" speed="13.89" length="27.20" shape="-196.80,133.60 -196.80,106.40"/>
    </edge>
    <edge id=":J18_1" function="internal">
        <lane id=":J18_1_0" index="0" speed="10.33" length="24.37" shape="-193.60,133.60 -192.88,125.55 -190.72,119.80 -187.13,116.35 -182.10,115.20"/>
        <lane id=":J18_1_1" index="1" speed="9.76" length="21.61" shape="-193.60,133.60 -192.88,126.95 -190.72,122.20 -187.13,119.35 -182.10,118.40"/>
    </edge>
    <edge id=":J18_3" function="internal">
        <lane id=":J18_3_0" index="0" speed="6.38" length="8.63" shape="-182.10,128.00 -184.33,128.35 -185.93,129.40 -186.88,131.15 -187.20,133.60"/>
        <lane id=":J18_3_1" index="1" speed="7.90" length="13.79" shape="-182.10,124.80 -185.73,125.35 -188.32,127.00 -189.88,129.75 -190.40,133.60"/>
    </edge>
    <edge id=":J18_5" function="internal">
        <lane id=":J18_5_0" index="0" speed="9.76" length="21.61" shape="-182.10,121.60 -187.13,120.65 -190.72,117.80 -192.88,113.05 -193.60,106.40"/>
    </edge>
    <edge id=":J18_6" function="internal">
        <lane id=":J18_6_0" index="0" speed="6.38" length="8.63" shape="-187.20,106.40 -186.88,108.85 -185.92,110.60 -184.33,111.65 -182.10,112.00"/>
    </edge>
    <edge id=":J18_7" function="internal">
        <lane id=":J18_7_0" index="0" speed="13.89" length="27.42" shape="-190.40,106.40 -189.90,113.46 -188.80,120.00 -187.70,126.54 -187.20,133.60"/>
    </edge>
    <edge id=":J2_0" function="internal">
        <lane id=":J2_0_0" index="0" speed="6.51" length="9.03" shape="-44.80,13.60 -45.15,11.15 -46.20,9.40 -47.95,8.35 -50.40,8.00"/>
    </edge>
    <edge id=":J2_1" function="internal">
        <lane id=":J2_1_0" index="0" speed="10.41" length="24.73" shape="-41.60,13.60 -40.85,5.55 -38.60,-0.20 -34.85,-3.65 -29.60,-4.80"/>
        <lane id=":J2_1_1" index="1" speed="9.84" length="21.99" shape="-41.60,13.60 -40.85,6.95 -38.60,2.20 -34.85,-0.65 -29.60,-1.60"/>
    </edge>
    <edge id=":J2_3" function="internal">
        <lane id=":J2_3_0" index="0" speed="6.51" length="9.03" shape="-29.60,8.00 -32.05,8.35 -33.80,9.40 -34.85,11.15 -35.20,13.60"/>
    </edge>
    <edge id=":J2_4" function="internal">
        <lane id=":J2_4_0" index="0" speed="13.89" length="20.80" shape="-29.60,4.80 -50.40,4.80"/>
        <lane id=":J2_4_1" index="1" speed="13.89" length="20.80" shape="-29.60,1.60 -50.40,1.60"/>
    </edge>
    <edge id=":J2_6" function="internal">
        <lane id=":J2_6_0" index="0" speed="13.89" length="20.80" shape="-50.40,-8.00 -29.60,-8.00"/>
        <lane id=":J2_6_1" index="1" speed="13.89" length="20.80" shape="-50.40,-4.80 -29.60,-4.80"/>
    </edge>
    <edge id=":J2_8" function="internal">
        <lane id=":J2_8_0" index="0" speed="9.84" length="4.01" shape="-50.40,-1.60 -46.45,-0.89"/>
    </edge>
    <edge id=":J2_9" function="internal">
        <lane id=":J2_9_0" index="0" speed="9.84" length="17.98" shape="-46.45,-0.89 -45.15,-0.65 -41.40,2.20 -39.15,6.95 -38.40,13.60"/>
    </edge>
    <edge id=":J22_0" function="internal">
        <lane id=":J22_0_0" index="0" speed="13.89" length="20.96" shape="-219.80,80.40 -220.30,74.41 -221.40,70.20 -222.50,65.88 -223.00,59.60"/>
        <lane id=":J22_0_1" index="1" speed="13.89" length="20.96" shape="-219.80,80.40 -219.80,59.60"/>
    </edge>
    <edge id=":J22_2" function="internal">
        <lane id=":J22_2_0" index="0" speed="9.84" length="4.01" shape="-216.60,80.40 -215.89,76.45"/>
    </edge>
    <edge id=":J22_9" function="internal">
        <lane id=":J22_9_0" index="0" speed="9.84" length="17.98" shape="-215.89,76.45 -215.65,75.15 -212.80,71.40 -208.05,69.15 -201.40,68.40"/>
    </edge>
    <edge id=":J22_3" function="internal">
        <lane id=":J22_3_0" index="0" speed="7.33" length="11.73" shape="-201.40,74.80 -205.25,75.15 -208.00,76.20 -209.65,77.95 -210.20,80.40"/>
    </edge>
    <edge id=":J22_4" function="internal">
        <lane id=":J22_4_0" index="0" speed="10.41" length="24.73" shape="-201.40,71.60 -209.45,70.85 -215.20,68.60 -218.65,64.85 -219.80,59.60"/>
        <lane id=":J22_4_1" index="1" speed="9.84" length="21.99" shape="-201.40,71.60 -208.05,70.85 -212.80,68.60 -215.65,64.85 -216.60,59.60"/>
    </edge>
    <edge id=":J22_6" function="internal">
        <lane id=":J22_6_0" index="0" speed="6.51" length="9.03" shape="-207.00,59.60 -206.65,62.05 -205.60,63.80 -203.85,64.85 -201.40,65.20"/>
    </edge>
    <edge id=":J22_7" function="internal">
        <lane id=":J22_7_0" index="0" speed="13.89" length="20.80" shape="-210.20,59.60 -210.20,80.40"/>
        <lane id=":J22_7_1" index="1" speed="13.89" length="20.80" shape="-213.40,59.60 -213.40,80.40"/>
    </edge>
    <edge id=":J23_0" function="internal">
        <lane id=":J23_0_0" index="0" speed="13.89" length="47.76" shape="-223.00,13.60 -221.42,4.69 -216.70,-4.80 -208.82,-14.87 -197.80,-25.52"/>
        <lane id=":J23_0_1" index="1" speed="13.89" length="45.04" shape="-219.80,13.60 -218.29,5.39 -213.78,-3.47 -206.24,-12.96 -195.70,-23.10"/>
    </edge>
    <edge id=":J23_2" function="internal">
        <lane id=":J23_2_0" index="0" speed="13.23" length="9.20" shape="-216.60,13.60 -214.64,5.55 -213.99,4.91"/>
        <lane id=":J23_2_1" index="1" speed="12.88" length="6.74" shape="-216.60,13.60 -214.70,7.14"/>
    </edge>
    <edge id=":J23_11" function="internal">
        <lane id=":J23_11_0" index="0" speed="13.23" length="31.42" shape="-213.99,4.91 -208.77,-0.20 -198.99,-3.65 -185.29,-4.80"/>
        <lane id=":J23_11_1" index="0" speed="12.88" length="31.67" shape="-214.70,7.14 -214.64,6.95 -208.77,2.20 -198.99,-0.65 -185.29,-1.60"/>
    </edge>
    <edge id=":J23_4" function="internal">
        <lane id=":J23_4_0" index="0" speed="10.18" length="23.61" shape="-185.29,8.00 -194.79,8.35 -201.57,9.40 -205.64,11.15 -207.00,13.60"/>
        <lane id=":J23_4_1" index="1" speed="11.13" length="28.45" shape="-185.29,4.80 -196.19,5.35 -203.97,7.00 -208.64,9.75 -210.20,13.60"/>
    </edge>
    <edge id=":J23_6" function="internal">
        <lane id=":J23_6_0" index="0" speed="9.75" length="35.70" shape="-185.29,1.60 -194.78,-0.89 -200.30,-7.09 -200.91,-15.12 -195.70,-23.10"/>
        <lane id=":J23_6_1" index="1" speed="9.21" length="31.68" shape="-185.29,1.60 -193.56,-0.66 -198.14,-6.29 -198.37,-13.55 -193.60,-20.68"/>
    </edge>
    <edge id=":J23_8" function="internal">
        <lane id=":J23_8_0" index="0" speed="5.46" length="9.99" shape="-187.31,-13.43 -189.53,-11.05 -189.94,-9.36 -188.52,-8.34 -185.29,-8.00"/>
    </edge>
    <edge id=":J23_9" function="internal">
        <lane id=":J23_9_0" index="0" speed="13.89" length="36.88" shape="-189.41,-15.85 -198.51,-7.24 -205.00,0.53 -208.90,7.48 -210.20,13.60"/>
        <lane id=":J23_9_1" index="1" speed="13.89" length="39.59" shape="-191.51,-18.26 -201.09,-9.15 -207.93,-0.80 -212.03,6.78 -213.40,13.60"/>
    </edge>
    <edge id=":J26_0" function="internal">
        <lane id=":J26_0_0" index="0" speed="6.51" length="9.03" shape="-34.80,73.60 -35.15,71.15 -36.20,69.40 -37.95,68.35 -40.40,68.00"/>
    </edge>
    <edge id=":J26_1" function="internal">
        <lane id=":J26_1_0" index="0" speed="10.41" length="24.73" shape="-31.60,73.60 -30.85,65.55 -28.60,59.80 -24.85,56.35 -19.60,55.20"/>
        <lane id=":J26_1_1" index="1" speed="9.84" length="21.99" shape="-31.60,73.60 -30.85,66.95 -28.60,62.20 -24.85,59.35 -19.60,58.40"/>
    </edge>
    <edge id=":J26_3" function="internal">
        <lane id=":J26_3_0" index="0" speed="6.51" length="9.03" shape="-19.60,68.00 -22.05,68.35 -23.80,69.40 -24.85,71.15 -25.20,73.60"/>
    </edge>
    <edge id=":J26_4" function="internal">
        <lane id=":J26_4_0" index="0" speed="13.89" length="20.80" shape="-19.60,64.80 -40.40,64.80"/>
        <lane id=":J26_4_1" index="1" speed="13.89" length="20.80" shape="-19.60,61.60 -40.40,61.60"/>
    </edge>
    <edge id=":J26_6" function="internal">
        <lane id=":J26_6_0" index="0" speed="13.89" length="20.80" shape="-40.40,52.00 -19.60,52.00"/>
        <lane id=":J26_6_1" index="1" speed="13.89" length="20.80" shape="-40.40,55.20 -19.60,55.20"/>
    </edge>
    <edge id=":J26_8" function="internal">
        <lane id=":J26_8_0" index="0" speed="9.84" length="4.01" shape="-40.40,58.40 -36.45,59.11"/>
    </edge>
    <edge id=":J26_9" function="internal">
        <lane id=":J26_9_0" index="0" speed="9.84" length="17.98" shape="-36.45,59.11 -35.15,59.35 -31.40,62.20 -29.15,66.95 -28.40,73.60"/>
    </edge>
    <edge id=":J27_0" function="internal">
        <lane id=":J27_0_0" index="0" speed="13.89" length="20.80" shape="52.00,80.40 52.00,59.60"/>
        <lane id=":J27_0_1" index="1" speed="13.89" length="20.80" shape="55.20,80.40 55.20,59.60"/>
    </edge>
    <edge id=":J27_2" function="internal">
        <lane id=":J27_2_0" index="0" speed="9.84" length="4.01" shape="58.40,80.40 59.11,76.45"/>
    </edge>
    <edge id=":J27_9" function="internal">
        <lane id=":J27_9_0" index="0" speed="9.84" length="17.98" shape="59.11,76.45 59.35,75.15 62.20,71.40 66.95,69.15 73.60,68.40"/>
    </edge>
    <edge id=":J27_3" function="internal">
        <lane id=":J27_3_0" index="0" speed="6.51" length="9.03" shape="73.60,74.80 71.15,75.15 69.40,76.20 68.35,77.95 68.00,80.40"/>
    </edge>
    <edge id=":J27_4" function="internal">
        <lane id=":J27_4_0" index="0" speed="10.41" length="24.73" shape="73.60,71.60 65.55,70.85 59.80,68.60 56.35,64.85 55.20,59.60"/>
        <lane id=":J27_4_1" index="1" speed="9.84" length="21.99" shape="73.60,71.60 66.95,70.85 62.20,68.60 59.35,64.85 58.40,59.60"/>
    </edge>
    <edge id=":J27_6" function="internal">
        <lane id=":J27_6_0" index="0" speed="6.51" length="9.03" shape="68.00,59.60 68.35,62.05 69.40,63.80 71.15,64.85 73.60,65.20"/>
    </edge>
    <edge id=":J27_7" function="internal">
        <lane id=":J27_7_0" index="0" speed="13.89" length="20.80" shape="64.80,59.60 64.80,80.40"/>
        <lane id=":J27_7_1" index="1" speed="13.89" length="20.80" shape="61.60,59.60 61.60,80.40"/>
    </edge>
    <edge id=":J28_0" function="internal">
        <lane id=":J28_0_0" index="0" speed="13.89" length="20.30" shape="52.00,109.90 52.00,89.60"/>
        <lane id=":J28_0_1" index="1" speed="13.89" length="20.30" shape="55.20,109.90 55.20,89.60"/>
    </edge>
    <edge id=":J28_2" function="internal">
        <lane id=":J28_2_0" index="0" speed="9.37" length="4.43" shape="58.40,109.90 59.11,105.53"/>
    </edge>
    <edge id=":J28_9" function="internal">
        <lane id=":J28_9_0" index="0" speed="9.37" length="15.42" shape="59.11,105.53 59.22,104.87 61.67,101.28 65.77,99.12 71.50,98.40"/>
    </edge>
    <edge id=":J28_3" function="internal">
        <lane id=":J28_3_0" index="0" speed="5.81" length="6.98" shape="71.50,104.80 69.97,105.12 68.88,106.07 68.22,107.67 68.00,109.90"/>
    </edge>
    <edge id=":J28_4" function="internal">
        <lane id=":J28_4_0" index="0" speed="10.04" length="22.92" shape="71.50,101.60 64.37,100.85 59.28,98.60 56.22,94.85 55.20,89.60"/>
        <lane id=":J28_4_1" index="1" speed="9.46" length="20.25" shape="71.50,101.60 65.77,100.85 61.68,98.60 59.22,94.85 58.40,89.60"/>
    </edge>
    <edge id=":J28_6" function="internal">
        <lane id=":J28_6_0" index="0" speed="5.96" length="7.42" shape="68.00,89.60 68.22,92.05 68.88,93.80 69.97,94.85 71.50,95.20"/>
    </edge>
    <edge id=":J28_7" function="internal">
        <lane id=":J28_7_0" index="0" speed="13.89" length="20.30" shape="64.80,89.60 64.80,109.90"/>
        <lane id=":J28_7_1" index="1" speed="13.89" length="20.30" shape="61.60,89.60 61.60,109.90"/>
    </edge>
    <edge id=":J3_0" function="internal">
        <lane id=":J3_0_0" index="0" speed="13.89" length="18.70" shape="90.40,104.80 71.70,104.80"/>
    </edge>
    <edge id=":J3_1" function="internal">
        <lane id=":J3_1_0" index="0" speed="9.26" length="5.01" shape="90.40,101.60 85.44,100.89"/>
    </edge>
    <edge id=":J3_7" function="internal">
        <lane id=":J3_7_0" index="0" speed="9.26" length="14.34" shape="85.44,100.89 85.15,100.85 81.40,98.60 79.15,94.85 78.40,89.60"/>
    </edge>
    <edge id=":J3_2" function="internal">
        <lane id=":J3_2_0" index="0" speed="6.51" length="9.03" shape="84.80,89.60 85.15,92.05 86.20,93.80 87.95,94.85 90.40,95.20"/>
    </edge>
    <edge id=":J3_3" function="internal">
        <lane id=":J3_3_0" index="0" speed="8.87" length="17.69" shape="81.60,89.60 80.98,94.85 79.12,98.60 76.03,100.85 71.70,101.60"/>
    </edge>
    <edge id=":J3_4" function="internal">
        <lane id=":J3_4_0" index="0" speed="5.96" length="7.42" shape="71.70,95.20 73.23,94.85 74.33,93.80 74.98,92.05 75.20,89.60"/>
    </edge>
    <edge id=":J3_5" function="internal">
        <lane id=":J3_5_0" index="0" speed="13.89" length="18.70" shape="71.70,95.20 90.40,95.20"/>
        <lane id=":J3_5_1" index="1" speed="13.89" length="18.70" shape="71.70,98.40 90.40,98.40"/>
    </edge>
    <edge id=":J31_0" function="internal">
        <lane id=":J31_0_0" index="0" speed="6.51" length="9.03" shape="52.00,13.60 51.65,11.15 50.60,9.40 48.85,8.35 46.40,8.00"/>
    </edge>
    <edge id=":J31_1" function="internal">
        <lane id=":J31_1_0" index="0" speed="13.89" length="27.20" shape="55.20,13.60 55.20,-13.60"/>
        <lane id=":J31_1_1" index="1" speed="13.89" length="27.20" shape="58.40,13.60 58.40,-13.60"/>
    </edge>
    <edge id=":J31_3" function="internal">
        <lane id=":J31_3_0" index="0" speed="13.89" length="27.20" shape="68.00,-13.60 68.00,13.60"/>
        <lane id=":J31_3_1" index="1" speed="13.89" length="27.20" shape="64.80,-13.60 64.80,13.60"/>
    </edge>
    <edge id=":J31_5" function="internal">
        <lane id=":J31_5_0" index="0" speed="10.88" length="6.03" shape="61.60,-13.60 60.89,-7.62"/>
        <lane id=":J31_5_1" index="1" speed="10.36" length="5.01" shape="61.60,-13.60 60.89,-8.64"/>
    </edge>
    <edge id=":J31_10" function="internal">
        <lane id=":J31_10_0" index="0" speed="10.88" length="21.12" shape="60.89,-7.62 60.65,-5.55 57.80,0.20 53.05,3.65 46.40,4.80"/>
        <lane id=":J31_10_1" index="0" speed="10.36" length="19.50" shape="60.89,-8.64 60.65,-6.95 57.80,-2.20 53.05,0.65 46.40,1.60"/>
    </edge>
    <edge id=":J31_7" function="internal">
        <lane id=":J31_7_0" index="0" speed="6.51" length="9.03" shape="46.40,-8.00 48.85,-8.35 50.60,-9.40 51.65,-11.15 52.00,-13.60"/>
    </edge>
    <edge id=":J31_8" function="internal">
        <lane id=":J31_8_0" index="0" speed="11.36" length="29.67" shape="46.40,-4.80 54.45,-3.65 60.20,-0.20 63.65,5.55 64.80,13.60"/>
        <lane id=":J31_8_1" index="1" speed="10.36" length="24.51" shape="46.40,-1.60 53.05,-0.65 57.80,2.20 60.65,6.95 61.60,13.60"/>
    </edge>
    <edge id=":J35_0" function="internal">
        <lane id=":J35_0_0" index="0" speed="6.51" length="9.03" shape="-118.00,-51.40 -118.35,-53.85 -119.40,-55.60 -121.15,-56.65 -123.60,-57.00"/>
    </edge>
    <edge id=":J35_1" function="internal">
        <lane id=":J35_1_0" index="0" speed="11.36" length="29.67" shape="-114.80,-51.40 -113.65,-59.45 -110.20,-65.20 -104.45,-68.65 -96.40,-69.80"/>
        <lane id=":J35_1_1" index="1" speed="10.36" length="24.51" shape="-111.60,-51.40 -110.65,-58.05 -107.80,-62.80 -103.05,-65.65 -96.40,-66.60"/>
    </edge>
    <edge id=":J35_3" function="internal">
        <lane id=":J35_3_0" index="0" speed="6.51" length="9.03" shape="-96.40,-57.00 -98.85,-56.65 -100.60,-55.60 -101.65,-53.85 -102.00,-51.40"/>
    </edge>
    <edge id=":J35_4" function="internal">
        <lane id=":J35_4_0" index="0" speed="13.89" length="27.20" shape="-96.40,-60.20 -123.60,-60.20"/>
        <lane id=":J35_4_1" index="1" speed="13.89" length="27.20" shape="-96.40,-63.40 -123.60,-63.40"/>
    </edge>
    <edge id=":J35_6" function="internal">
        <lane id=":J35_6_0" index="0" speed="13.89" length="27.20" shape="-123.60,-73.00 -96.40,-73.00"/>
        <lane id=":J35_6_1" index="1" speed="13.89" length="27.20" shape="-123.60,-69.80 -96.40,-69.80"/>
    </edge>
    <edge id=":J35_8" function="internal">
        <lane id=":J35_8_0" index="0" speed="10.88" length="6.03" shape="-123.60,-66.60 -117.62,-65.89"/>
        <lane id=":J35_8_1" index="1" speed="10.36" length="5.01" shape="-123.60,-66.60 -118.64,-65.89"/>
    </edge>
    <edge id=":J35_10" function="internal">
        <lane id=":J35_10_0" index="0" speed="10.88" length="21.12" shape="-117.62,-65.89 -115.55,-65.65 -109.80,-62.80 -106.35,-58.05 -105.20,-51.40"/>
        <lane id=":J35_10_1" index="0" speed="10.36" length="19.50" shape="-118.64,-65.89 -116.95,-65.65 -112.20,-62.80 -109.35,-58.05 -108.40,-51.40"/>
    </edge>
    <edge id=":J36_0" function="internal">
        <lane id=":J36_0_0" index="0" speed="6.51" length="9.03" shape="52.00,-51.40 51.65,-53.85 50.60,-55.60 48.85,-56.65 46.40,-57.00"/>
    </edge>
    <edge id=":J36_1" function="internal">
        <lane id=":J36_1_0" index="0" speed="13.89" length="27.20" shape="55.20,-51.40 55.20,-78.60"/>
        <lane id=":J36_1_1" index="1" speed="13.89" length="27.20" shape="58.40,-51.40 58.40,-78.60"/>
    </edge>
    <edge id=":J36_3" function="internal">
        <lane id=":J36_3_0" index="0" speed="13.89" length="27.20" shape="68.00,-78.60 68.00,-51.40"/>
        <lane id=":J36_3_1" index="1" speed="13.89" length="27.20" shape="64.80,-78.60 64.80,-51.40"/>
    </edge>
    <edge id=":J36_5" function="internal">
        <lane id=":J36_5_0" index="0" speed="10.88" length="6.03" shape="61.60,-78.60 60.89,-72.62"/>
        <lane id=":J36_5_1" index="1" speed="10.36" length="5.01" shape="61.60,-78.60 60.89,-73.64"/>
    </edge>
    <edge id=":J36_11" function="internal">
        <lane id=":J36_11_0" index="0" speed="10.88" length="21.12" shape="60.89,-72.62 60.65,-70.55 57.80,-64.80 53.05,-61.35 46.40,-60.20"/>
        <lane id=":J36_11_1" index="0" speed="10.36" length="19.50" shape="60.89,-73.64 60.65,-71.95 57.80,-67.20 53.05,-64.35 46.40,-63.40"/>
    </edge>
    <edge id=":J36_7" function="internal">
        <lane id=":J36_7_0" index="0" speed="6.51" length="9.03" shape="46.40,-73.00 48.85,-73.35 50.60,-74.40 51.65,-76.15 52.00,-78.60"/>
        <lane id=":J36_7_1" index="1" speed="8.00" length="14.19" shape="46.40,-69.80 50.25,-70.35 53.00,-72.00 54.65,-74.75 55.20,-78.60"/>
    </edge>
    <edge id=":J36_9" function="internal">
        <lane id=":J36_9_0" index="0" speed="10.88" length="27.14" shape="46.40,-66.60 54.45,-65.65 60.20,-62.80 63.65,-58.05 64.80,-51.40"/>
        <lane id=":J36_9_1" index="1" speed="10.36" length="24.51" shape="46.40,-66.60 53.05,-65.65 57.80,-62.80 60.65,-58.05 61.60,-51.40"/>
    </edge>
    <edge id=":J38_0" function="internal">
        <lane id=":J38_0_0" index="0" speed="5.39" length="5.87" shape="-8.00,-9.20 -8.35,-9.64 -9.40,-9.95 -11.15,-10.14 -13.60,-10.20"/>
    </edge>
    <edge id=":J38_1" function="internal">
        <lane id=":J38_1_0" index="0" speed="13.89" length="14.88" shape="-4.80,-9.20 -4.80,-24.41"/>
        <lane id=":J38_1_1" index="1" speed="13.89" length="14.88" shape="-1.60,-9.20 -1.60,-23.75"/>
    </edge>
    <edge id=":J38_3" function="internal">
        <lane id=":J38_3_0" index="0" speed="13.89" length="12.89" shape="8.00,-21.76 8.00,-9.20"/>
        <lane id=":J38_3_1" index="1" speed="13.89" length="12.89" shape="4.80,-22.42 4.80,-9.20"/>
    </edge>
    <edge id=":J38_5" function="internal">
        <lane id=":J38_5_0" index="0" speed="9.46" length="3.30" shape="1.60,-23.09 0.88,-19.87"/>
    </edge>
    <edge id=":J38_10" function="internal">
        <lane id=":J38_10_0" index="0" speed="9.46" length="16.96" shape="0.88,-19.87 0.65,-18.85 -2.20,-15.82 -6.95,-14.01 -13.60,-13.40"/>
    </edge>
    <edge id=":J38_6" function="internal">
        <lane id=":J38_6_0" index="0" speed="6.42" length="8.77" shape="-13.60,-19.80 -11.15,-20.13 -9.40,-21.12 -8.35,-22.76 -8.00,-25.07"/>
        <lane id=":J38_6_1" index="1" speed="7.79" length="13.40" shape="-13.60,-16.60 -9.75,-17.09 -7.00,-18.55 -5.35,-20.99 -4.80,-24.41"/>
    </edge>
    <edge id=":J38_8" function="internal">
        <lane id=":J38_8_0" index="0" speed="9.75" length="21.57" shape="-13.60,-16.60 -5.55,-16.14 0.20,-14.75 3.65,-12.44 4.80,-9.20"/>
        <lane id=":J38_8_1" index="1" speed="9.10" length="18.66" shape="-13.60,-16.60 -6.95,-16.14 -2.20,-14.75 0.65,-12.44 1.60,-9.20"/>
    </edge>
    <edge id=":J41_0" function="internal">
        <lane id=":J41_0_0" index="0" speed="6.51" length="9.03" shape="52.00,-16.40 51.65,-18.85 50.60,-20.60 48.85,-21.65 46.40,-22.00"/>
    </edge>
    <edge id=":J41_1" function="internal">
        <lane id=":J41_1_0" index="0" speed="13.89" length="27.20" shape="55.20,-16.40 55.20,-43.60"/>
    </edge>
    <edge id=":J41_2" function="internal">
        <lane id=":J41_2_0" index="0" speed="10.36" length="12.07" shape="58.40,-16.40 59.35,-23.05 62.10,-27.64"/>
    </edge>
    <edge id=":J41_12" function="internal">
        <lane id=":J41_12_0" index="0" speed="10.36" length="12.44" shape="62.10,-27.64 62.20,-27.80 66.95,-30.65 73.60,-31.60"/>
    </edge>
    <edge id=":J41_3" function="internal">
        <lane id=":J41_3_0" index="0" speed="6.51" length="9.03" shape="73.60,-22.00 71.15,-21.65 69.40,-20.60 68.35,-18.85 68.00,-16.40"/>
    </edge>
    <edge id=":J41_4" function="internal">
        <lane id=":J41_4_0" index="0" speed="13.89" length="27.20" shape="73.60,-25.20 46.40,-25.20"/>
    </edge>
    <edge id=":J41_5" function="internal">
        <lane id=":J41_5_0" index="0" speed="10.36" length="12.07" shape="73.60,-28.40 66.95,-29.35 62.36,-32.10"/>
    </edge>
    <edge id=":J41_13" function="internal">
        <lane id=":J41_13_0" index="0" speed="10.36" length="12.44" shape="62.36,-32.10 62.20,-32.20 59.35,-36.95 58.40,-43.60"/>
    </edge>
    <edge id=":J41_6" function="internal">
        <lane id=":J41_6_0" index="0" speed="6.51" length="9.03" shape="68.00,-43.60 68.35,-41.15 69.40,-39.40 71.15,-38.35 73.60,-38.00"/>
    </edge>
    <edge id=":J41_7" function="internal">
        <lane id=":J41_7_0" index="0" speed="13.89" length="27.20" shape="64.80,-43.60 64.80,-16.40"/>
    </edge>
    <edge id=":J41_8" function="internal">
        <lane id=":J41_8_0" index="0" speed="10.36" length="12.07" shape="61.60,-43.60 60.65,-36.95 57.90,-32.36"/>
    </edge>
    <edge id=":J41_14" function="internal">