<?xml version="1.0" encoding="UTF-8"?>

<!-- generated on 2025-11-26 00:47:31 by Eclipse SUMO netedit Version 1.24.0
<neteditConfiguration xmlns:xsi="http://www.w3.org/2001/XMLSchema-instance" xsi:noNamespaceSchemaLocation="http://sumo.dlr.de/xsd/neteditConfiguration.xsd">

    <input>
        <sumo-net-file value="D:\Winter 2025 2026\OOP Java\SUMO project\TestSUMO\simpfi_new.net.xml"/>
    </input>

    <output>
        <output-file value="D:\Winter 2025 2026\OOP Java\SUMO project\TestSUMO\simpfi_new.net.xml"/>
    </output>

    <processing>
        <offset.disable-normalization value="true"/>
    </processing>

    <junctions>
        <no-turnarounds value="true"/>
    </junctions>

    <netedit>
        <new-network value="false"/>
    </netedit>

</neteditConfiguration>
-->

<net version="1.20" junctionCornerDetail="5" limitTurnSpeed="5.50" xmlns:xsi="http://www.w3.org/2001/XMLSchema-instance" xsi:noNamespaceSchemaLocation="http://sumo.dlr.de/xsd/net_file.xsd">

    <location netOffset="0.00,0.00" convBoundary="-215.00,-120.00,200.00,150.00" origBoundary="10000000000.00,10000000000.00,-10000000000.00,-10000000000.00" projParameter="!"/>

    <edge id=":J0_0" function="internal">
        <lane id=":J0_0_0" index="0" speed="6.51" length="9.03" shape="-1.60,7.20 -1.95,4.75 -3.00,3.00 -4.75,1.95 -7.20,1.60"/>
    </edge>
    <edge id=":J0_1" function="internal">
        <lane id=":J0_1_0" index="0" speed="13.89" length="14.40" shape="-1.60,7.20 -1.60,-7.20"/>
    </edge>
    <edge id=":J0_2" function="internal">
        <lane id=":J0_2_0" index="0" speed="8.00" length="14.19" shape="-1.60,7.20 -1.05,3.35 0.60,0.60 3.35,-1.05 7.20,-1.60"/>
    </edge>
    <edge id=":J0_3" function="internal">
        <lane id=":J0_3_0" index="0" speed="13.89" length="14.40" shape="7.20,1.60 -7.20,1.60"/>
    </edge>
    <edge id=":J0_4" function="internal">
        <lane id=":J0_4_0" index="0" speed="8.00" length="4.07" shape="7.20,1.60 3.35,1.05 3.20,0.96"/>
    </edge>
    <edge id=":J0_9" function="internal">
        <lane id=":J0_9_0" index="0" speed="8.00" length="10.13" shape="3.20,0.96 0.60,-0.60 -1.05,-3.35 -1.60,-7.20"/>
    </edge>
    <edge id=":J0_5" function="internal">
        <lane id=":J0_5_0" index="0" speed="6.51" length="9.03" shape="1.60,-7.20 1.95,-4.75 3.00,-3.00 4.75,-1.95 7.20,-1.60"/>
    </edge>
    <edge id=":J0_6" function="internal">
        <lane id=":J0_6_0" index="0" speed="8.00" length="14.19" shape="1.60,-7.20 1.05,-3.35 -0.60,-0.60 -3.35,1.05 -7.20,1.60"/>
    </edge>
    <edge id=":J0_7" function="internal">
        <lane id=":J0_7_0" index="0" speed="6.51" length="9.03" shape="-7.20,-1.60 -4.75,-1.95 -3.00,-3.00 -1.95,-4.75 -1.60,-7.20"/>
    </edge>
    <edge id=":J0_8" function="internal">
        <lane id=":J0_8_0" index="0" speed="13.89" length="14.40" shape="-7.20,-1.60 7.20,-1.60"/>
    </edge>
    <edge id=":J10_0" function="internal">
        <lane id=":J10_0_0" index="0" speed="3.90" length="2.58" shape="-166.80,61.60 -167.50,61.70 -168.00,62.00 -168.30,62.50 -168.40,63.20"/>
    </edge>
    <edge id=":J12_0" function="internal">
        <lane id=":J12_0_0" index="0" speed="13.89" length="11.20" shape="-111.60,87.20 -111.60,76.00"/>
    </edge>
    <edge id=":J12_1" function="internal">
        <lane id=":J12_1_0" index="0" speed="6.51" length="4.11" shape="-106.00,81.60 -108.45,81.25 -109.85,80.41"/>
    </edge>
    <edge id=":J12_2" function="internal">
        <lane id=":J12_2_0" index="0" speed="6.51" length="4.93" shape="-109.85,80.41 -110.20,80.20 -111.25,78.45 -111.60,76.00"/>
    </edge>
    <edge id=":J14_0" function="internal">
        <lane id=":J14_0_0" index="0" speed="3.90" length="2.58" shape="-113.20,118.40 -112.50,118.30 -112.00,118.00 -111.70,117.50 -111.60,116.80"/>
    </edge>
    <edge id=":J16_0" function="internal">
        <lane id=":J16_0_0" index="0" speed="6.51" length="4.11" shape="-173.60,124.00 -173.25,121.55 -172.41,120.15"/>
    </edge>
    <edge id=":J16_2" function="internal">
        <lane id=":J16_2_0" index="0" speed="6.51" length="4.93" shape="-172.41,120.15 -172.20,119.80 -170.45,118.75 -168.00,118.40"/>
    </edge>
    <edge id=":J16_1" function="internal">
        <lane id=":J16_1_0" index="0" speed="13.89" length="11.20" shape="-179.20,118.40 -168.00,118.40"/>
    </edge>
    <edge id=":J18_0" function="internal">
        <lane id=":J18_0_0" index="0" speed="13.89" length="11.20" shape="-193.60,124.00 -193.60,112.80"/>
    </edge>
    <edge id=":J18_1" function="internal">
        <lane id=":J18_1_0" index="0" speed="6.51" length="9.03" shape="-193.60,124.00 -193.25,121.55 -192.20,119.80 -190.45,118.75 -188.00,118.40"/>
    </edge>
    <edge id=":J19_0" function="internal">
        <lane id=":J19_0_0" index="0" speed="3.90" length="2.58" shape="-193.60,73.20 -193.70,72.50 -194.00,72.00 -194.50,71.70 -195.20,71.60"/>
    </edge>
    <edge id=":J2_0" function="internal">
        <lane id=":J2_0_0" index="0" speed="6.51" length="9.03" shape="-41.60,7.20 -41.95,4.75 -43.00,3.00 -44.75,1.95 -47.20,1.60"/>
    </edge>
    <edge id=":J2_1" function="internal">
        <lane id=":J2_1_0" index="0" speed="7.33" length="11.73" shape="-41.60,7.20 -41.25,3.35 -40.20,0.60 -38.45,-1.05 -36.00,-1.60"/>
    </edge>
    <edge id=":J2_2" function="internal">
        <lane id=":J2_2_0" index="0" speed="13.89" length="11.20" shape="-36.00,1.60 -47.20,1.60"/>
    </edge>
    <edge id=":J2_3" function="internal">
        <lane id=":J2_3_0" index="0" speed="13.89" length="11.20" shape="-47.20,-1.60 -36.00,-1.60"/>
    </edge>
    <edge id=":J22_0" function="internal">
        <lane id=":J22_0_0" index="0" speed="13.89" length="11.20" shape="-216.60,77.20 -216.60,66.00"/>
    </edge>
    <edge id=":J22_1" function="internal">
        <lane id=":J22_1_0" index="0" speed="6.51" length="4.11" shape="-211.00,71.60 -213.45,71.25 -214.85,70.41"/>
    </edge>
    <edge id=":J22_2" function="internal">
        <lane id=":J22_2_0" index="0" speed="6.51" length="4.93" shape="-214.85,70.41 -215.20,70.20 -216.25,68.45 -216.60,66.00"/>
    </edge>
    <edge id=":J23_0" function="internal">
        <lane id=":J23_0_0" index="0" speed="11.39" length="13.54" shape="-216.60,4.00 -216.15,1.54 -214.78,-1.12 -212.52,-3.98 -209.34,-7.03"/>
    </edge>
    <edge id=":J23_1" function="internal">
        <lane id=":J23_1_0" index="0" speed="7.45" length="12.15" shape="-216.60,4.00 -216.02,1.55 -214.28,-0.20 -211.38,-1.25 -207.31,-1.60"/>
    </edge>
    <edge id=":J26_0" function="internal">
        <lane id=":J26_0_0" index="0" speed="6.51" length="4.11" shape="-31.60,64.00 -31.25,61.55 -30.41,60.15"/>
    </edge>
    <edge id=":J26_2" function="internal">
        <lane id=":J26_2_0" index="0" speed="6.51" length="4.93" shape="-30.41,60.15 -30.20,59.80 -28.45,58.75 -26.00,58.40"/>
    </edge>
    <edge id=":J26_1" function="internal">
        <lane id=":J26_1_0" index="0" speed="13.89" length="11.20" shape="-37.20,58.40 -26.00,58.40"/>
    </edge>
    <edge id=":J31_0" function="internal">
        <lane id=":J31_0_0" index="0" speed="6.51" length="9.03" shape="58.40,7.20 58.05,4.75 57.00,3.00 55.25,1.95 52.80,1.60"/>
    </edge>
    <edge id=":J31_1" function="internal">
        <lane id=":J31_1_0" index="0" speed="13.89" length="14.40" shape="58.40,7.20 58.40,-7.20"/>
    </edge>
    <edge id=":J31_2" function="internal">
        <lane id=":J31_2_0" index="0" speed="6.51" length="9.03" shape="52.80,-1.60 55.25,-1.95 57.00,-3.00 58.05,-4.75 58.40,-7.20"/>
    </edge>
    <edge id=":J34_0" function="internal">
        <lane id=":J34_0_0" index="0" speed="4.30" length="1.16" shape="-141.13,-66.21 -140.87,-66.42 -140.66,-66.54 -140.42,-66.59 -140.08,-66.60"/>
    </edge>
    <edge id=":J35_0" function="internal">
        <lane id=":J35_0_0" index="0" speed="6.51" length="4.11" shape="-111.60,-61.00 -111.25,-63.45 -110.41,-64.85"/>
    </edge>
    <edge id=":J35_2" function="internal">
        <lane id=":J35_2_0" index="0" speed="6.51" length="4.93" shape="-110.41,-64.85 -110.20,-65.20 -108.45,-66.25 -106.00,-66.60"/>
    </edge>
    <edge id=":J35_1" function="internal">
        <lane id=":J35_1_0" index="0" speed="13.89" length="11.20" shape="-117.20,-66.60 -106.00,-66.60"/>
    </edge>
    <edge id=":J36_0" function="internal">
        <lane id=":J36_0_0" index="0" speed="13.89" length="11.20" shape="58.40,-61.00 58.40,-72.20"/>
    </edge>
    <edge id=":J36_1" function="internal">
        <lane id=":J36_1_0" index="0" speed="6.51" length="9.03" shape="52.80,-66.60 55.25,-66.95 57.00,-68.00 58.05,-69.75 58.40,-72.20"/>
    </edge>
    <edge id=":J38_0" function="internal">
        <lane id=":J38_0_0" index="0" speed="13.89" length="11.20" shape="-1.60,-11.00 -1.60,-22.20"/>
    </edge>
    <edge id=":J38_1" function="internal">
        <lane id=":J38_1_0" index="0" speed="13.89" length="11.20" shape="1.60,-22.20 1.60,-11.00"/>
    </edge>
    <edge id=":J38_2" function="internal">
        <lane id=":J38_2_0" index="0" speed="6.51" length="9.03" shape="-7.20,-16.60 -4.75,-16.95 -3.00,-18.00 -1.95,-19.75 -1.60,-22.20"/>
    </edge>
    <edge id=":J38_3" function="internal">
        <lane id=":J38_3_0" index="0" speed="7.33" length="11.73" shape="-7.20,-16.60 -3.35,-16.25 -0.60,-15.20 1.05,-13.45 1.60,-11.00"/>
    </edge>
    <edge id=":J40_0" function="internal">
        <lane id=":J40_0_0" index="0" speed="6.08" length="7.74" shape="-1.60,-26.80 -1.30,-28.90 -0.40,-30.40 1.10,-31.30 3.20,-31.60"/>
    </edge>
    <edge id=":J40_1" function="internal">
        <lane id=":J40_1_0" index="0" speed="3.90" length="2.58" shape="3.20,-28.40 2.50,-28.30 2.00,-28.00 1.70,-27.50 1.60,-26.80"/>
    </edge>
    <edge id=":J41_0" function="internal">
        <lane id=":J41_0_0" index="0" speed="6.51" length="9.03" shape="58.40,-22.80 58.05,-25.25 57.00,-27.00 55.25,-28.05 52.80,-28.40"/>
    </edge>
    <edge id=":J41_1" function="internal">
        <lane id=":J41_1_0" index="0" speed="13.89" length="14.40" shape="58.40,-22.80 58.40,-37.20"/>
    </edge>
    <edge id=":J41_2" function="internal">
        <lane id=":J41_2_0" index="0" speed="7.33" length="11.73" shape="58.40,-22.80 58.75,-26.65 59.80,-29.40 61.55,-31.05 64.00,-31.60"/>
    </edge>
    <edge id=":J41_3" function="internal">
        <lane id=":J41_3_0" index="0" speed="13.89" length="11.20" shape="64.00,-28.40 52.80,-28.40"/>
    </edge>
    <edge id=":J41_4" function="internal">
        <lane id=":J41_4_0" index="0" speed="7.33" length="2.51" shape="64.00,-28.40 61.55,-28.95"/>
    </edge>
    <edge id=":J41_7" function="internal">
        <lane id=":J41_7_0" index="0" speed="7.33" length="9.21" shape="61.55,-28.95 59.80,-30.60 58.75,-33.35 58.40,-37.20"/>
    </edge>
    <edge id=":J41_5" function="internal">
        <lane id=":J41_5_0" index="0" speed="6.51" length="9.03" shape="52.80,-31.60 55.25,-31.95 57.00,-33.00 58.05,-34.75 58.40,-37.20"/>
    </edge>
    <edge id=":J41_6" function="internal">
        <lane id=":J41_6_0" index="0" speed="13.89" length="11.20" shape="52.80,-31.60 64.00,-31.60"/>
    </edge>
    <edge id=":J42_0" function="internal">
        <lane id=":J42_0_0" index="0" speed="3.90" length="2.58" shape="60.00,121.60 59.30,121.50 58.80,121.20 58.50,120.70 58.40,120.00"/>
    </edge>
    <edge id=":J43_0" function="internal">
        <lane id=":J43_0_0" index="0" speed="6.51" length="9.03" shape="78.40,127.20 78.05,124.75 77.00,123.00 75.25,121.95 72.80,121.60"/>
    </edge>
    <edge id=":J43_1" function="internal">
        <lane id=":J43_1_0" index="0" speed="13.89" length="11.20" shape="84.00,121.60 72.80,121.60"/>
    </edge>
    <edge id=":J45_0" function="internal">
        <lane id=":J45_0_0" index="0" speed="3.90" length="2.58" shape="108.40,123.20 108.30,122.50 108.00,122.00 107.50,121.70 106.80,121.60"/>
    </edge>
    <edge id=":J48_0" function="internal">
        <lane id=":J48_0_0" index="0" speed="3.90" length="2.58" shape="146.80,148.40 147.50,148.30 148.00,148.00 148.30,147.50 148.40,146.80"/>
    </edge>
    <edge id=":J49_0" function="internal">
        <lane id=":J49_0_0" index="0" speed="3.90" length="2.58" shape="148.40,23.20 148.30,22.50 148.00,22.00 147.50,21.70 146.80,21.60"/>
    </edge>
    <edge id=":J50_0" function="internal">
        <lane id=":J50_0_0" index="0" speed="3.90" length="2.58" shape="100.00,21.60 99.30,21.50 98.80,21.20 98.50,20.70 98.40,20.00"/>
    </edge>
    <edge id=":J51_0" function="internal">
        <lane id=":J51_0_0" index="0" speed="6.51" length="9.03" shape="98.40,-22.80 98.05,-25.25 97.00,-27.00 95.25,-28.05 92.80,-28.40"/>
    </edge>
    <edge id=":J51_1" function="internal">
        <lane id=":J51_1_0" index="0" speed="13.89" length="14.40" shape="98.40,-22.80 98.40,-37.20"/>
    </edge>
    <edge id=":J51_2" function="internal">
        <lane id=":J51_2_0" index="0" speed="6.51" length="9.03" shape="92.80,-31.60 95.25,-31.95 97.00,-33.00 98.05,-34.75 98.40,-37.20"/>
    </edge>
    <edge id=":J54_0" function="internal">
        <lane id=":J54_0_0" index="0" speed="3.90" length="2.58" shape="98.40,-85.00 98.50,-85.70 98.80,-86.20 99.30,-86.50 100.00,-86.60"/>
    </edge>
    <edge id=":J55_0" function="internal">
        <lane id=":J55_0_0" index="0" speed="3.90" length="2.58" shape="196.80,-86.60 197.50,-86.70 198.00,-87.00 198.30,-87.50 198.40,-88.20"/>
    </edge>
    <edge id=":J64_0" function="internal">
        <lane id=":J64_0_0" index="0" speed="3.90" length="2.58" shape="-3.20,58.40 -2.50,58.30 -2.00,58.00 -1.70,57.50 -1.60,56.80"/>
    </edge>
    <edge id=":J7_0" function="internal">
        <lane id=":J7_0_0" index="0" speed="6.51" length="9.03" shape="-81.60,7.20 -81.95,4.75 -83.00,3.00 -84.75,1.95 -87.20,1.60"/>
    </edge>
    <edge id=":J7_1" function="internal">
        <lane id=":J7_1_0" index="0" speed="7.33" length="11.73" shape="-81.60,7.20 -81.25,3.35 -80.20,0.60 -78.45,-1.05 -76.00,-1.60"/>
    </edge>
    <edge id=":J7_2" function="internal">
        <lane id=":J7_2_0" index="0" speed="13.89" length="11.20" shape="-76.00,1.60 -87.20,1.60"/>
    </edge>
    <edge id=":J7_3" function="internal">
        <lane id=":J7_3_0" index="0" speed="13.89" length="11.20" shape="-87.20,-1.60 -76.00,-1.60"/>
    </edge>
    <edge id=":J8_0" function="internal">
        <lane id=":J8_0_0" index="0" speed="13.89" length="14.40" shape="-111.60,7.20 -111.60,-7.20"/>
    </edge>
    <edge id=":J8_1" function="internal">
        <lane id=":J8_1_0" index="0" speed="8.00" length="14.19" shape="-111.60,7.20 -111.05,3.35 -109.40,0.60 -106.65,-1.05 -102.80,-1.60"/>
    </edge>
    <edge id=":J8_2" function="internal">
        <lane id=":J8_2_0" index="0" speed="6.51" length="9.03" shape="-102.80,1.60 -105.25,1.95 -107.00,3.00 -108.05,4.75 -108.40,7.20"/>
    </edge>
    <edge id=":J8_3" function="internal">
        <lane id=":J8_3_0" index="0" speed="8.00" length="14.19" shape="-102.80,1.60 -106.65,1.05 -109.40,-0.60 -111.05,-3.35 -111.60,-7.20"/>
    </edge>
    <edge id=":J8_4" function="internal">
        <lane id=":J8_4_0" index="0" speed="6.51" length="9.03" shape="-117.20,-1.60 -114.75,-1.95 -113.00,-3.00 -111.95,-4.75 -111.60,-7.20"/>
    </edge>
    <edge id=":J8_5" function="internal">
        <lane id=":J8_5_0" index="0" speed="13.89" length="14.40" shape="-117.20,-1.60 -102.80,-1.60"/>
    </edge>
    <edge id=":J8_6" function="internal">
        <lane id=":J8_6_0" index="0" speed="8.00" length="14.19" shape="-117.20,-1.60 -113.35,-1.05 -110.60,0.60 -108.95,3.35 -108.40,7.20"/>
    </edge>
    <edge id=":J9_0" function="internal">
        <lane id=":J9_0_0" index="0" speed="13.89" length="11.20" shape="-111.60,67.20 -111.60,56.00"/>
    </edge>
    <edge id=":J9_1" function="internal">
        <lane id=":J9_1_0" index="0" speed="7.33" length="11.73" shape="-108.40,56.00 -108.95,58.45 -110.60,60.20 -113.35,61.25 -117.20,61.60"/>
    </edge>

    <edge id="-E30" from="J0" to="J31" priority="-1">
        <lane id="-E30_0" index="0" speed="13.89" length="45.60" shape="7.20,-1.60 52.80,-1.60"/>
    </edge>
    <edge id="-E39" from="J38" to="J0" priority="-1">
        <lane id="-E39_0" index="0" speed="13.89" length="3.80" shape="1.60,-11.00 1.60,-7.20"/>
    </edge>
    <edge id="-E4" from="J2" to="J0" priority="-1">
        <lane id="-E4_0" index="0" speed="13.89" length="28.80" shape="-36.00,-1.60 -7.20,-1.60"/>
    </edge>
    <edge id="-E41" from="J40" to="J38" priority="-1">
        <lane id="-E41_0" index="0" speed="13.89" length="4.60" shape="1.60,-26.80 1.60,-22.20"/>
    </edge>
    <edge id="-E42" from="J41" to="J40" priority="-1">
        <lane id="-E42_0" index="0" speed="13.89" length="49.60" shape="52.80,-28.40 3.20,-28.40"/>
    </edge>
    <edge id="-E55" from="J41" to="J51" priority="-1">
        <lane id="-E55_0" index="0" speed="13.89" length="28.80" shape="64.00,-31.60 92.80,-31.60"/>
    </edge>
    <edge id="-E6" from="J7" to="J2" priority="-1">
        <lane id="-E6_0" index="0" speed="13.89" length="28.80" shape="-76.00,-1.60 -47.20,-1.60"/>
    </edge>
    <edge id="-E7" from="J8" to="J7" priority="-1">
        <lane id="-E7_0" index="0" speed="13.89" length="15.60" shape="-102.80,-1.60 -87.20,-1.60"/>
    </edge>
    <edge id="-E8" from="J9" to="J8" priority="-1">
        <lane id="-E8_0" index="0" speed="13.89" length="48.80" shape="-111.60,56.00 -111.60,7.20"/>
    </edge>
    <edge id="E10" from="J10" to="J11" priority="-1">
        <lane id="E10_0" index="0" speed="13.89" length="26.80" shape="-168.40,63.20 -168.40,90.00"/>
    </edge>
    <edge id="E11" from="J12" to="J9" priority="-1">
        <lane id="E11_0" index="0" speed="13.89" length="8.80" shape="-111.60,76.00 -111.60,67.20"/>
    </edge>
    <edge id="E12" from="J13" to="J12" priority="-1">
        <lane id="E12_0" index="0" speed="13.89" length="14.00" shape="-92.00,81.60 -106.00,81.60"/>
    </edge>
    <edge id="E13" from="J14" to="J12" priority="-1">
        <lane id="E13_0" index="0" speed="13.89" length="29.60" shape="-111.60,116.80 -111.60,87.20"/>
    </edge>
    <edge id="E14" from="J15" to="J16" priority="-1">
        <lane id="E14_0" index="0" speed="13.89" length="16.00" shape="-173.60,140.00 -173.60,124.00"/>
    </edge>
    <edge id="E15" from="J16" to="J14" priority="-1">
        <lane id="E15_0" index="0" speed="13.89" length="54.80" shape="-168.00,118.40 -113.20,118.40"/>
    </edge>
    <edge id="E16" from="J17" to="J18" priority="-1">
        <lane id="E16_0" index="0" speed="13.89" length="16.00" shape="-193.60,140.00 -193.60,124.00"/>
    </edge>
    <edge id="E17" from="J18" to="J16" priority="-1">
        <lane id="E17_0" index="0" speed="13.89" length="8.80" shape="-188.00,118.40 -179.20,118.40"/>
    </edge>
    <edge id="E18" from="J18" to="J19" priority="-1">
        <lane id="E18_0" index="0" speed="13.89" length="39.60" shape="-193.60,112.80 -193.60,73.20"/>
    </edge>
    <edge id="E19" from="J21" to="J22" priority="-1">
        <lane id="E19_0" index="0" speed="13.89" length="17.80" shape="-216.60,95.00 -216.60,77.20"/>
    </edge>
    <edge id="E20" from="J19" to="J22" priority="-1">
        <lane id="E20_0" index="0" speed="13.89" length="15.80" shape="-195.20,71.60 -211.00,71.60"/>
    </edge>
    <edge id="E21" from="J22" to="J23" priority="-1">
        <lane id="E21_0" index="0" speed="13.89" length="62.00" shape="-216.60,66.00 -216.60,4.00"/>
    </edge>
    <edge id="E22" from="J23" to="J8" priority="-1">
        <lane id="E22_0" index="0" speed="13.89" length="90.11" shape="-207.31,-1.60 -117.20,-1.60"/>
    </edge>
    <edge id="E24" from="J25" to="J26" priority="-1">
        <lane id="E24_0" index="0" speed="13.89" length="16.00" shape="-31.60,80.00 -31.60,64.00"/>
    </edge>
    <edge id="E28" from="J30" to="J26" priority="-1">
        <lane id="E28_0" index="0" speed="13.89" length="42.80" shape="-80.00,58.40 -37.20,58.40"/>
    </edge>
    <edge id="E3" from="J5" to="J2" priority="-1">
        <lane id="E3_0" index="0" speed="13.89" length="22.80" shape="-41.60,30.00 -41.60,7.20"/>
    </edge>
    <edge id="E30" from="J31" to="J0" priority="-1">
        <lane id="E30_0" index="0" speed="13.89" length="45.60" shape="52.80,1.60 7.20,1.60"/>
    </edge>
    <edge id="E34" from="J23" to="J34" priority="-1">
        <lane id="E34_0" index="0" speed="13.89" length="90.30" shape="-209.34,-7.03 -141.13,-66.21"/>
    </edge>
    <edge id="E35" from="J34" to="J35" priority="-1">
        <lane id="E35_0" index="0" speed="13.89" length="22.88" shape="-140.08,-66.60 -117.20,-66.60"/>
    </edge>
    <edge id="E36" from="J8" to="J35" priority="-1">
        <lane id="E36_0" index="0" speed="13.89" length="53.80" shape="-111.60,-7.20 -111.60,-61.00"/>
    </edge>
    <edge id="E37" from="J35" to="J36" priority="-1">
        <lane id="E37_0" index="0" speed="13.89" length="158.80" shape="-106.00,-66.60 52.80,-66.60"/>
    </edge>
    <edge id="E38" from="J36" to="J37" priority="-1">
        <lane id="E38_0" index="0" speed="13.89" length="47.80" shape="58.40,-72.20 58.40,-120.00"/>
    </edge>
    <edge id="E39" from="J0" to="J38" priority="-1">
        <lane id="E39_0" index="0" speed="13.89" length="3.80" shape="-1.60,-7.20 -1.60,-11.00"/>
    </edge>
    <edge id="E4" from="J0" to="J2" priority="-1">
        <lane id="E4_0" index="0" speed="13.89" length="28.80" shape="-7.20,1.60 -36.00,1.60"/>
    </edge>
    <edge id="E40" from="J39" to="J38" priority="-1">
        <lane id="E40_0" index="0" speed="13.89" length="22.80" shape="-30.00,-16.60 -7.20,-16.60"/>
    </edge>
    <edge id="E41" from="J38" to="J40" priority="-1">
        <lane id="E41_0" index="0" speed="13.89" length="4.60" shape="-1.60,-22.20 -1.60,-26.80"/>
    </edge>
    <edge id="E42" from="J40" to="J41" priority="-1">
        <lane id="E42_0" index="0" speed="13.89" length="49.60" shape="3.20,-31.60 52.80,-31.60"/>
    </edge>
    <edge id="E43" from="J31" to="J41" priority="-1">
        <lane id="E43_0" index="0" speed="13.89" length="15.60" shape="58.40,-7.20 58.40,-22.80"/>
    </edge>
    <edge id="E44" from="J41" to="J36" priority="-1">
        <lane id="E44_0" index="0" speed="13.89" length="23.80" shape="58.40,-37.20 58.40,-61.00"/>
    </edge>
    <edge id="E45" from="J42" to="J31" priority="-1">
        <lane id="E45_0" index="0" speed="13.89" length="112.80" shape="58.40,120.00 58.40,7.20"/>
    </edge>
    <edge id="E46" from="J43" to="J42" priority="-1">
        <lane id="E46_0" index="0" speed="13.89" length="12.80" shape="72.80,121.60 60.00,121.60"/>
    </edge>
    <edge id="E47" from="J44" to="J43" priority="-1">
        <lane id="E47_0" index="0" speed="13.89" length="14.80" shape="78.40,142.00 78.40,127.20"/>
    </edge>
    <edge id="E48" from="J45" to="J43" priority="-1">
        <lane id="E48_0" index="0" speed="13.89" length="22.80" shape="106.80,121.60 84.00,121.60"/>
    </edge>
    <edge id="E49" from="J46" to="J45" priority="-1">
        <lane id="E49_0" index="0" speed="13.89" length="18.80" shape="108.40,142.00 108.40,123.20"/>
    </edge>
    <edge id="E5" from="J6" to="J7" priority="-1">
        <lane id="E5_0" index="0" speed="13.89" length="22.80" shape="-81.60,30.00 -81.60,7.20"/>
    </edge>
    <edge id="E50" from="J47" to="J48" priority="-1">
        <lane id="E50_0" index="0" speed="13.89" length="16.80" shape="130.00,148.40 146.80,148.40"/>
    </edge>
    <edge id="E51" from="J48" to="J49" priority="-1">
        <lane id="E51_0" index="0" speed="13.89" length="123.60" shape="148.40,146.80 148.40,23.20"/>
    </edge>
    <edge id="E52" from="J49" to="J50" priority="-1">
        <lane id="E52_0" index="0" speed="13.89" length="46.80" shape="146.80,21.60 100.00,21.60"/>
    </edge>
    <edge id="E53" from="J50" to="J51" priority="-1">
        <lane id="E53_0" index="0" speed="13.89" length="42.80" shape="98.40,20.00 98.40,-22.80"/>
    </edge>
    <edge id="E55" from="J51" to="J41" priority="-1">
        <lane id="E55_0" index="0" speed="13.89" length="28.80" shape="92.80,-28.40 64.00,-28.40"/>
    </edge>
    <edge id="E57" from="J51" to="J54" priority="-1">
        <lane id="E57_0" index="0" speed="13.89" length="47.80" shape="98.40,-37.20 98.40,-85.00"/>
    </edge>
    <edge id="E58" from="J54" to="J55" priority="-1">
        <lane id="E58_0" index="0" speed="13.89" length="96.80" shape="100.00,-86.60 196.80,-86.60"/>
    </edge>
    <edge id="E59" from="J55" to="J58" priority="-1">
        <lane id="E59_0" index="0" speed="13.89" length="31.80" shape="198.40,-88.20 198.40,-120.00"/>
    </edge>
    <edge id="E6" from="J2" to="J7" priority="-1">
        <lane id="E6_0" index="0" speed="13.89" length="28.80" shape="-47.20,1.60 -76.00,1.60"/>
    </edge>
    <edge id="E62" from="J64" to="J0" priority="-1">
        <lane id="E62_0" index="0" speed="13.89" length="49.60" shape="-1.60,56.80 -1.60,7.20"/>
    </edge>
    <edge id="E63" from="J26" to="J64" priority="-1">
        <lane id="E63_0" index="0" speed="13.89" length="22.80" shape="-26.00,58.40 -3.20,58.40"/>
    </edge>
    <edge id="E7" from="J7" to="J8" priority="-1">
        <lane id="E7_0" index="0" speed="13.89" length="15.60" shape="-87.20,1.60 -102.80,1.60"/>
    </edge>
    <edge id="E8" from="J8" to="J9" priority="-1">
        <lane id="E8_0" index="0" speed="13.89" length="48.80" shape="-108.40,7.20 -108.40,56.00"/>
    </edge>
    <edge id="E9" from="J9" to="J10" priority="-1">
        <lane id="E9_0" index="0" speed="13.89" length="49.60" shape="-117.20,61.60 -166.80,61.60"/>
    </edge>

    <tlLogic id="J0" type="static" programID="0" offset="0">
        <phase duration="27" state="GGGrrrrrr"/>
        <phase duration="3"  state="yyyrrrrrr"/>
        <phase duration="27" state="rrrGgrrGG"/>
        <phase duration="3"  state="rrryyrrGy"/>
        <phase duration="27" state="rrrrrGGGr"/>
        <phase duration="3"  state="rrrrryyyr"/>
    </tlLogic>
    <tlLogic id="J2" type="static" programID="0" offset="0">
        <phase duration="10" state="rrGG"/>
        <phase duration="3"  state="rryy"/>
        <phase duration="10" state="GGrr"/>
        <phase duration="3"  state="yyrr"/>
    </tlLogic>
    <tlLogic id="J38" type="static" programID="0" offset="0">
        <phase duration="5"  state="GGrr"/>
        <phase duration="3"  state="yyrr"/>
        <phase duration="5"  state="rrGG"/>
        <phase duration="3"  state="rryy"/>
    </tlLogic>
    <tlLogic id="J41" type="static" programID="0" offset="0">
        <phase duration="10" state="rrrGgGG"/>
        <phase duration="3"  state="rrryyyy"/>
        <phase duration="10" state="GGGrrrr"/>
        <phase duration="3"  state="yyyrrrr"/>
    </tlLogic>
    <tlLogic id="J7" type="static" programID="0" offset="0">
        <phase duration="10" state="rrGG"/>
        <phase duration="3"  state="rryy"/>
        <phase duration="10" state="GGrr"/>
        <phase duration="3"  state="yyrr"/>
    </tlLogic>
    <tlLogic id="J8" type="static" programID="0" offset="0">
        <phase duration="10" state="rrGGrrr"/>
        <phase duration="3"  state="rryyrrr"/>
        <phase duration="10" state="rrrrGGG"/>
        <phase duration="3"  state="rrrryyy"/>
        <phase duration="10" state="GGGrrrr"/>
        <phase duration="3"  state="yyGrrrr"/>
    </tlLogic>
    <tlLogic id="J9" type="static" programID="0" offset="0">
        <phase duration="5"  state="rG"/>
        <phase duration="3"  state="ry"/>
        <phase duration="5"  state="Gr"/>
        <phase duration="3"  state="yr"/>
    </tlLogic>

    <junction id="J0" type="traffic_light" x="0.00" y="0.00" incLanes="E62_0 E30_0 -E39_0 -E4_0" intLanes=":J0_0_0 :J0_1_0 :J0_2_0 :J0_3_0 :J0_9_0 :J0_5_0 :J0_6_0 :J0_7_0 :J0_8_0" shape="-3.20,7.20 0.00,7.20 0.80,4.98 1.80,4.20 3.20,3.64 5.00,3.31 7.20,3.20 7.20,-3.20 4.98,-3.64 4.20,-4.20 3.64,-4.98 3.31,-5.98 3.20,-7.20 -3.20,-7.20 -3.64,-4.98 -4.20,-4.20 -4.98,-3.64 -5.98,-3.31 -7.20,-3.20 -7.20,3.20 -4.98,3.64 -4.20,4.20 -3.64,4.98 -3.31,5.98">
        <request index="0" response="000000000" foes="001001000" cont="0"/>
        <request index="1" response="000010000" foes="111011000" cont="0"/>
        <request index="2" response="000110000" foes="101111000" cont="0"/>
        <request index="3" response="001000111" foes="001000111" cont="0"/>
        <request index="4" response="111000110" foes="111000110" cont="1"/>
        <request index="5" response="000000000" foes="100000100" cont="0"/>
        <request index="6" response="000010111" foes="100011111" cont="0"/>
        <request index="7" response="000000010" foes="000010010" cont="0"/>
        <request index="8" response="001100110" foes="001110110" cont="0"/>
    </junction>
    <junction id="J10" type="priority" x="-170.00" y="60.00" incLanes="E9_0" intLanes=":J10_0_0" shape="-170.00,63.20 -166.80,63.20 -166.80,60.00 -168.58,60.36 -169.20,60.80 -169.64,61.42 -169.91,62.22">
        <request index="0" response="0" foes="0" cont="0"/>
    </junction>
    <junction id="J11" type="dead_end" x="-170.00" y="90.00" incLanes="E10_0" intLanes="" shape="-166.80,90.00 -170.00,90.00"/>
    <junction id="J12" type="priority" x="-110.00" y="80.00" incLanes="E13_0 E12_0" intLanes=":J12_0_0 :J12_2_0" shape="-113.20,87.20 -110.00,87.20 -109.56,84.98 -109.00,84.20 -108.22,83.64 -107.22,83.31 -106.00,83.20 -106.00,80.00 -108.22,79.56 -109.00,79.00 -109.56,78.22 -109.89,77.22 -110.00,76.00 -113.20,76.00">
        <request index="0" response="00" foes="10" cont="0"/>
        <request index="1" response="01" foes="01" cont="1"/>
    </junction>
    <junction id="J13" type="dead_end" x="-92.00" y="80.00" incLanes="" intLanes="" shape="-92.00,80.00 -92.00,83.20"/>
    <junction id="J14" type="priority" x="-110.00" y="120.00" incLanes="E15_0" intLanes=":J14_0_0" shape="-110.00,116.80 -113.20,116.80 -113.20,120.00 -111.42,119.64 -110.80,119.20 -110.36,118.58 -110.09,117.78">
        <request index="0" response="0" foes="0" cont="0"/>
    </junction>