<?xml version="1.0" encoding="UTF-8"?>

<!-- generated on 2025-11-26 12:52:46 by Eclipse SUMO netedit Version 1.24.0
<neteditConfiguration xmlns:xsi="http://www.w3.org/2001/XMLSchema-instance" xsi:noNamespaceSchemaLocation="http://sumo.dlr.de/xsd/neteditConfiguration.xsd">

    <input>
        <sumocfg-file value="D:\Winter 2025 2026\OOP Java\SUMO project\TestSUMO\simpfi_real.sumocfg"/>
        <route-files value="D:\Winter 2025 2026\OOP Java\SUMO project\TestSUMO\simpfi_new.rou.xml"/>
        <sumo-net-file value="D:\Winter 2025 2026\OOP Java\SUMO project\TestSUMO\simpfi_new.net.xml"/>
    </input>

    <output>
        <output-file value="D:\Winter 2025 2026\OOP Java\SUMO project\TestSUMO\simpfi_new.net.xml"/>
    </output>

    <processing>
        <geometry.min-radius.fix.railways value="false"/>
        <geometry.avoid-overlap value="false"/>
        <geometry.max-grade.fix value="false"/>
        <offset.disable-normalization value="true"/>
        <lefthand value="0"/>
    </processing>

    <junctions>
        <no-turnarounds value="true"/>
        <junctions.corner-detail value="5"/>
        <junctions.limit-turn-speed value="5.50"/>
        <rectangular-lane-cut value="0"/>
    </junctions>

    <pedestrian>
        <walkingareas value="0"/>
    </pedestrian>

</neteditConfiguration>
-->

<net version="1.20" junctionCornerDetail="5" limitTurnSpeed="5.50" avoidOverlap="0" xmlns:xsi="http://www.w3.org/2001/XMLSchema-instance" xsi:noNamespaceSchemaLocation="http://sumo.dlr.de/xsd/net_file.xsd">

    <location netOffset="0.00,0.00" convBoundary="-215.00,-120.00,200.00,150.00" origBoundary="-10000000000.00,-10000000000.00,10000000000.00,10000000000.00" projParameter="!"/>

    <edge id=":J0_0" function="internal">
        <lane id=":J0_0_0" index="0" speed="6.51" length="9.03" shape="-1.60,13.60 -1.95,11.15 -3.00,9.40 -4.75,8.35 -7.20,8.00"/>
    </edge>
    <edge id=":J0_1" function="internal">
        <lane id=":J0_1_0" index="0" speed="13.89" length="24.20" shape="-1.60,13.60 -1.60,-10.60"/>
    </edge>
    <edge id=":J0_2" function="internal">
        <lane id=":J0_2_0" index="0" speed="9.32" length="7.05" shape="-1.60,13.60 -1.05,6.95 -0.92,6.59"/>
    </edge>
    <edge id=":J0_16" function="internal">
        <lane id=":J0_16_0" index="0" speed="9.32" length="12.57" shape="-0.92,6.59 0.60,2.20 3.35,-0.65 7.20,-1.60"/>
    </edge>
    <edge id=":J0_3" function="internal">
        <lane id=":J0_3_0" index="0" speed="6.51" length="9.03" shape="7.20,8.00 4.75,8.35 3.00,9.40 1.95,11.15 1.60,13.60"/>
    </edge>
    <edge id=":J0_4" function="internal">
        <lane id=":J0_4_0" index="0" speed="13.89" length="14.40" shape="7.20,8.00 -7.20,8.00"/>
        <lane id=":J0_4_1" index="1" speed="13.89" length="14.40" shape="7.20,4.80 -7.20,4.80"/>
        <lane id=":J0_4_2" index="2" speed="13.89" length="14.40" shape="7.20,1.60 -7.20,1.60"/>
    </edge>
    <edge id=":J0_7" function="internal">
        <lane id=":J0_7_0" index="0" speed="8.71" length="3.69" shape="7.20,1.60 3.58,0.88"/>
    </edge>
    <edge id=":J0_17" function="internal">
        <lane id=":J0_17_0" index="0" speed="8.71" length="13.33" shape="3.58,0.88 3.35,0.84 0.60,-1.45 -1.05,-5.26 -1.60,-10.60"/>
    </edge>
    <edge id=":J0_8" function="internal">
        <lane id=":J0_8_0" index="0" speed="5.74" length="6.79" shape="1.60,-10.60 1.95,-9.46 3.00,-8.65 4.75,-8.16 7.20,-8.00"/>
    </edge>
    <edge id=":J0_9" function="internal">
        <lane id=":J0_9_0" index="0" speed="13.89" length="24.20" shape="1.60,-10.60 1.60,13.60"/>
    </edge>
    <edge id=":J0_10" function="internal">
        <lane id=":J0_10_0" index="0" speed="8.71" length="5.65" shape="1.60,-10.60 1.05,-5.26 0.94,-5.00"/>
    </edge>
    <edge id=":J0_18" function="internal">
        <lane id=":J0_18_0" index="0" speed="8.71" length="11.37" shape="0.94,-5.00 -0.60,-1.45 -3.35,0.84 -7.20,1.60"/>
    </edge>
    <edge id=":J0_11" function="internal">
        <lane id=":J0_11_0" index="0" speed="5.74" length="6.79" shape="-7.20,-8.00 -4.75,-8.16 -3.00,-8.65 -1.95,-9.46 -1.60,-10.60"/>
    </edge>
    <edge id=":J0_12" function="internal">
        <lane id=":J0_12_0" index="0" speed="13.89" length="14.40" shape="-7.20,-8.00 7.20,-8.00"/>
        <lane id=":J0_12_1" index="1" speed="13.89" length="14.40" shape="-7.20,-4.80 7.20,-4.80"/>
        <lane id=":J0_12_2" index="2" speed="13.89" length="14.40" shape="-7.20,-1.60 7.20,-1.60"/>
    </edge>
    <edge id=":J0_15" function="internal">
        <lane id=":J0_15_0" index="0" speed="9.32" length="3.03" shape="-7.20,-1.60 -4.26,-0.87"/>
    </edge>
    <edge id=":J0_19" function="internal">
        <lane id=":J0_19_0" index="0" speed="9.32" length="16.60" shape="-4.26,-0.87 -3.35,-0.65 -0.60,2.20 1.05,6.95 1.60,13.60"/>
    </edge>
    <edge id=":J12_0" function="internal">
        <lane id=":J12_0_0" index="0" speed="13.89" length="14.40" shape="-111.60,87.20 -111.60,72.80"/>
    </edge>
    <edge id=":J12_1" function="internal">
        <lane id=":J12_1_0" index="0" speed="8.00" length="4.07" shape="-111.60,87.20 -111.05,83.35 -110.96,83.20"/>
    </edge>
    <edge id=":J12_6" function="internal">
        <lane id=":J12_6_0" index="0" speed="8.00" length="10.13" shape="-110.96,83.20 -109.40,80.60 -106.65,78.95 -102.80,78.40"/>
    </edge>
    <edge id=":J12_2" function="internal">
        <lane id=":J12_2_0" index="0" speed="6.51" length="9.03" shape="-102.80,81.60 -105.25,81.95 -107.00,83.00 -108.05,84.75 -108.40,87.20"/>
    </edge>
    <edge id=":J12_3" function="internal">
        <lane id=":J12_3_0" index="0" speed="8.00" length="14.19" shape="-102.80,81.60 -106.65,81.05 -109.40,79.40 -111.05,76.65 -111.60,72.80"/>
    </edge>
    <edge id=":J12_4" function="internal">
        <lane id=":J12_4_0" index="0" speed="6.51" length="9.03" shape="-108.40,72.80 -108.05,75.25 -107.00,77.00 -105.25,78.05 -102.80,78.40"/>
    </edge>
    <edge id=":J12_5" function="internal">
        <lane id=":J12_5_0" index="0" speed="13.89" length="14.40" shape="-108.40,72.80 -108.40,87.20"/>
    </edge>
    <edge id=":J14_0" function="internal">
        <lane id=":J14_0_0" index="0" speed="6.08" length="7.74" shape="-108.40,116.80 -108.70,118.90 -109.60,120.40 -111.10,121.30 -113.20,121.60"/>
    </edge>
    <edge id=":J14_1" function="internal">
        <lane id=":J14_1_0" index="0" speed="3.90" length="2.58" shape="-113.20,118.40 -112.50,118.30 -112.00,118.00 -111.70,117.50 -111.60,116.80"/>
    </edge>
    <edge id=":J16_0" function="internal">
        <lane id=":J16_0_0" index="0" speed="6.51" length="9.03" shape="-173.60,127.20 -173.95,124.75 -175.00,123.00 -176.75,121.95 -179.20,121.60"/>
    </edge>
    <edge id=":J16_1" function="internal">
        <lane id=":J16_1_0" index="0" speed="8.00" length="14.19" shape="-173.60,127.20 -173.05,123.35 -171.40,120.60 -168.65,118.95 -164.80,118.40"/>
    </edge>
    <edge id=":J16_2" function="internal">
        <lane id=":J16_2_0" index="0" speed="6.51" length="9.03" shape="-164.80,121.60 -167.25,121.95 -169.00,123.00 -170.05,124.75 -170.40,127.20"/>
    </edge>
    <edge id=":J16_3" function="internal">
        <lane id=":J16_3_0" index="0" speed="13.89" length="14.40" shape="-164.80,121.60 -179.20,121.60"/>
    </edge>
    <edge id=":J16_4" function="internal">
        <lane id=":J16_4_0" index="0" speed="13.89" length="14.40" shape="-179.20,118.40 -164.80,118.40"/>
    </edge>
    <edge id=":J16_5" function="internal">
        <lane id=":J16_5_0" index="0" speed="8.00" length="4.07" shape="-179.20,118.40 -175.35,118.95 -175.20,119.04"/>
    </edge>
    <edge id=":J16_6" function="internal">
        <lane id=":J16_6_0" index="0" speed="8.00" length="10.13" shape="-175.20,119.04 -172.60,120.60 -170.95,123.35 -170.40,127.20"/>
    </edge>
    <edge id=":J18_0" function="internal">
        <lane id=":J18_0_0" index="0" speed="13.89" length="14.40" shape="-193.60,127.20 -193.60,112.80"/>
    </edge>
    <edge id=":J18_1" function="internal">
        <lane id=":J18_1_0" index="0" speed="8.00" length="4.07" shape="-193.60,127.20 -193.05,123.35 -192.96,123.20"/>
    </edge>
    <edge id=":J18_6" function="internal">
        <lane id=":J18_6_0" index="0" speed="8.00" length="10.13" shape="-192.96,123.20 -191.40,120.60 -188.65,118.95 -184.80,118.40"/>
    </edge>
    <edge id=":J18_2" function="internal">
        <lane id=":J18_2_0" index="0" speed="6.51" length="9.03" shape="-184.80,121.60 -187.25,121.95 -189.00,123.00 -190.05,124.75 -190.40,127.20"/>
    </edge>
    <edge id=":J18_3" function="internal">
        <lane id=":J18_3_0" index="0" speed="8.00" length="14.19" shape="-184.80,121.60 -188.65,121.05 -191.40,119.40 -193.05,116.65 -193.60,112.80"/>
    </edge>
    <edge id=":J18_4" function="internal">
        <lane id=":J18_4_0" index="0" speed="6.51" length="9.03" shape="-190.40,112.80 -190.05,115.25 -189.00,117.00 -187.25,118.05 -184.80,118.40"/>
    </edge>
    <edge id=":J18_5" function="internal">
        <lane id=":J18_5_0" index="0" speed="13.89" length="14.40" shape="-190.40,112.80 -190.40,127.20"/>
    </edge>
    <edge id=":J19_0" function="internal">
        <lane id=":J19_0_0" index="0" speed="3.90" length="2.58" shape="-193.60,73.20 -193.70,72.50 -194.00,72.00 -194.50,71.70 -195.20,71.60"/>
    </edge>
    <edge id=":J19_1" function="internal">
        <lane id=":J19_1_0" index="0" speed="6.08" length="7.74" shape="-195.20,68.40 -193.10,68.70 -191.60,69.60 -190.70,71.10 -190.40,73.20"/>
    </edge>
    <edge id=":J2_0" function="internal">
        <lane id=":J2_0_0" index="0" speed="6.51" length="9.03" shape="-41.60,13.60 -41.95,11.15 -43.00,9.40 -44.75,8.35 -47.20,8.00"/>
    </edge>
    <edge id=":J2_1" function="internal">
        <lane id=":J2_1_0" index="0" speed="9.94" length="22.48" shape="-41.60,13.60 -41.05,5.55 -39.40,-0.20 -36.65,-3.65 -32.80,-4.80"/>
        <lane id=":J2_1_1" index="1" speed="9.32" length="19.63" shape="-41.60,13.60 -41.05,6.95 -39.40,2.20 -36.65,-0.65 -32.80,-1.60"/>
    </edge>
    <edge id=":J2_3" function="internal">
        <lane id=":J2_3_0" index="0" speed="6.51" length="9.03" shape="-32.80,8.00 -35.25,8.35 -37.00,9.40 -38.05,11.15 -38.40,13.60"/>
    </edge>
    <edge id=":J2_4" function="internal">
        <lane id=":J2_4_0" index="0" speed="13.89" length="14.40" shape="-32.80,8.00 -47.20,8.00"/>
        <lane id=":J2_4_1" index="1" speed="13.89" length="14.40" shape="-32.80,4.80 -47.20,4.80"/>
        <lane id=":J2_4_2" index="2" speed="13.89" length="14.40" shape="-32.80,1.60 -47.20,1.60"/>
    </edge>
    <edge id=":J2_7" function="internal">
        <lane id=":J2_7_0" index="0" speed="13.89" length="14.40" shape="-47.20,-8.00 -32.80,-8.00"/>
        <lane id=":J2_7_1" index="1" speed="13.89" length="14.40" shape="-47.20,-4.80 -32.80,-4.80"/>
        <lane id=":J2_7_2" index="2" speed="13.89" length="14.40" shape="-47.20,-1.60 -32.80,-1.60"/>
    </edge>
    <edge id=":J2_10" function="internal">
        <lane id=":J2_10_0" index="0" speed="9.32" length="3.03" shape="-47.20,-1.60 -44.26,-0.87"/>
    </edge>
    <edge id=":J2_11" function="internal">
        <lane id=":J2_11_0" index="0" speed="9.32" length="16.60" shape="-44.26,-0.87 -43.35,-0.65 -40.60,2.20 -38.95,6.95 -38.40,13.60"/>
    </edge>
    <edge id=":J22_0" function="internal">
        <lane id=":J22_0_0" index="0" speed="13.89" length="14.62" shape="-216.60,77.20 -217.10,73.88 -218.20,70.89 -219.30,67.46 -219.80,62.80"/>
        <lane id=":J22_0_1" index="1" speed="13.89" length="14.62" shape="-216.60,77.20 -216.60,62.80"/>
    </edge>
    <edge id=":J22_2" function="internal">
        <lane id=":J22_2_0" index="0" speed="8.67" length="3.71" shape="-216.60,77.20 -215.89,73.56"/>
    </edge>
    <edge id=":J22_7" function="internal">
        <lane id=":J22_7_0" index="0" speed="8.67" length="13.14" shape="-215.89,73.56 -215.85,73.35 -213.60,70.60 -209.85,68.95 -204.60,68.40"/>
    </edge>
    <edge id=":J22_3" function="internal">
        <lane id=":J22_3_0" index="0" speed="7.33" length="11.73" shape="-204.60,71.60 -208.45,71.95 -211.20,73.00 -212.85,74.75 -213.40,77.20"/>
    </edge>
    <edge id=":J22_4" function="internal">
        <lane id=":J22_4_0" index="0" speed="8.67" length="16.85" shape="-204.60,71.60 -209.85,71.05 -213.60,69.40 -215.85,66.65 -216.60,62.80"/>
    </edge>
    <edge id=":J22_5" function="internal">
        <lane id=":J22_5_0" index="0" speed="6.51" length="9.03" shape="-210.20,62.80 -209.85,65.25 -208.80,67.00 -207.05,68.05 -204.60,68.40"/>
    </edge>
    <edge id=":J22_6" function="internal">
        <lane id=":J22_6_0" index="0" speed="13.89" length="14.40" shape="-213.40,62.80 -213.40,77.20"/>
    </edge>
    <edge id=":J23_0" function="internal">
        <lane id=":J23_0_0" index="0" speed="13.89" length="41.48" shape="-219.80,13.60 -218.47,5.54 -214.47,-2.87 -207.81,-11.60 -198.49,-20.68"/>
    </edge>
    <edge id=":J23_1" function="internal">
        <lane id=":J23_1_0" index="0" speed="12.54" length="36.38" shape="-216.60,13.60 -214.95,5.55 -209.99,-0.20 -201.73,-3.65 -190.17,-4.80"/>
        <lane id=":J23_1_1" index="1" speed="12.14" length="34.06" shape="-216.60,13.60 -214.95,6.95 -209.99,2.20 -201.73,-0.65 -190.17,-1.60"/>
    </edge>
    <edge id=":J23_3" function="internal">
        <lane id=":J23_3_0" index="0" speed="9.84" length="22.01" shape="-190.17,8.00 -198.93,8.35 -205.19,9.40 -208.95,11.15 -210.20,13.60"/>
        <lane id=":J23_3_1" index="1" speed="10.83" length="26.89" shape="-190.17,4.80 -200.33,5.35 -207.59,7.00 -211.95,9.75 -213.40,13.60"/>
    </edge>
    <edge id=":J23_5" function="internal">
        <lane id=":J23_5_0" index="0" speed="8.65" length="27.72" shape="-190.17,1.60 -197.25,-0.44 -200.89,-5.49 -200.73,-11.96 -196.39,-18.26"/>
    </edge>
    <edge id=":J23_6" function="internal">
        <lane id=":J23_6_0" index="0" speed="5.46" length="9.99" shape="-192.20,-13.43 -194.42,-11.05 -194.82,-9.36 -193.40,-8.34 -190.17,-8.00"/>
        <lane id=":J23_6_1" index="1" speed="7.49" length="20.33" shape="-194.29,-15.85 -198.81,-11.01 -199.63,-7.56 -196.75,-5.49 -190.17,-4.80"/>
    </edge>
    <edge id=":J23_8" function="internal">
        <lane id=":J23_8_0" index="0" speed="13.89" length="36.02" shape="-194.29,-15.85 -202.65,-7.79 -208.62,-0.20 -212.21,6.93 -213.40,13.60"/>
    </edge>
    <edge id=":J26_0" function="internal">
        <lane id=":J26_0_0" index="0" speed="6.51" length="9.03" shape="-31.60,67.20 -31.95,64.75 -33.00,63.00 -34.75,61.95 -37.20,61.60"/>
    </edge>
    <edge id=":J26_1" function="internal">
        <lane id=":J26_1_0" index="0" speed="8.00" length="14.19" shape="-31.60,67.20 -31.05,63.35 -29.40,60.60 -26.65,58.95 -22.80,58.40"/>
    </edge>
    <edge id=":J26_2" function="internal">
        <lane id=":J26_2_0" index="0" speed="6.51" length="9.03" shape="-22.80,61.60 -25.25,61.95 -27.00,63.00 -28.05,64.75 -28.40,67.20"/>
    </edge>
    <edge id=":J26_3" function="internal">
        <lane id=":J26_3_0" index="0" speed="13.89" length="14.40" shape="-22.80,61.60 -37.20,61.60"/>
    </edge>
    <edge id=":J26_4" function="internal">
        <lane id=":J26_4_0" index="0" speed="13.89" length="14.40" shape="-37.20,58.40 -22.80,58.40"/>
    </edge>
    <edge id=":J26_5" function="internal">
        <lane id=":J26_5_0" index="0" speed="8.00" length="4.07" shape="-37.20,58.40 -33.35,58.95 -33.20,59.04"/>
    </edge>
    <edge id=":J26_6" function="internal">
        <lane id=":J26_6_0" index="0" speed="8.00" length="10.13" shape="-33.20,59.04 -30.60,60.60 -28.95,63.35 -28.40,67.20"/>
    </edge>
    <edge id=":J27_0" function="internal">
        <lane id=":J27_0_0" index="0" speed="13.89" length="14.40" shape="55.20,77.20 55.20,62.80"/>
        <lane id=":J27_0_1" index="1" speed="13.89" length="14.40" shape="58.40,77.20 58.40,62.80"/>
    </edge>
    <edge id=":J27_2" function="internal">
        <lane id=":J27_2_0" index="0" speed="8.67" length="3.71" shape="58.40,77.20 59.11,73.56"/>
    </edge>
    <edge id=":J27_8" function="internal">
        <lane id=":J27_8_0" index="0" speed="8.67" length="13.14" shape="59.11,73.56 59.15,73.35 61.40,70.60 65.15,68.95 70.40,68.40"/>
    </edge>
    <edge id=":J27_3" function="internal">
        <lane id=":J27_3_0" index="0" speed="6.51" length="9.03" shape="70.40,71.60 67.95,71.95 66.20,73.00 65.15,74.75 64.80,77.20"/>
    </edge>
    <edge id=":J27_4" function="internal">
        <lane id=":J27_4_0" index="0" speed="8.67" length="16.85" shape="70.40,71.60 65.15,71.05 61.40,69.40 59.15,66.65 58.40,62.80"/>
    </edge>
    <edge id=":J27_5" function="internal">
        <lane id=":J27_5_0" index="0" speed="6.51" length="9.03" shape="64.80,62.80 65.15,65.25 66.20,67.00 67.95,68.05 70.40,68.40"/>
    </edge>
    <edge id=":J27_6" function="internal">
        <lane id=":J27_6_0" index="0" speed="13.89" length="14.40" shape="64.80,62.80 64.80,77.20"/>
        <lane id=":J27_6_1" index="1" speed="13.89" length="14.40" shape="61.60,62.80 61.60,77.20"/>
    </edge>
    <edge id=":J28_0" function="internal">
        <lane id=":J28_0_0" index="0" speed="13.89" length="14.40" shape="55.20,107.20 55.20,92.80"/>
        <lane id=":J28_0_1" index="1" speed="13.89" length="14.40" shape="58.40,107.20 58.40,92.80"/>
    </edge>
    <edge id=":J28_2" function="internal">
        <lane id=":J28_2_0" index="0" speed="8.67" length="3.71" shape="58.40,107.20 59.11,103.56"/>
    </edge>
    <edge id=":J28_8" function="internal">
        <lane id=":J28_8_0" index="0" speed="8.67" length="13.14" shape="59.11,103.56 59.15,103.35 61.40,100.60 65.15,98.95 70.40,98.40"/>
    </edge>
    <edge id=":J28_3" function="internal">
        <lane id=":J28_3_0" index="0" speed="6.51" length="9.03" shape="70.40,101.60 67.95,101.95 66.20,103.00 65.15,104.75 64.80,107.20"/>
    </edge>
    <edge id=":J28_4" function="internal">
        <lane id=":J28_4_0" index="0" speed="8.67" length="16.85" shape="70.40,101.60 65.15,101.05 61.40,99.40 59.15,96.65 58.40,92.80"/>
    </edge>
    <edge id=":J28_5" function="internal">
        <lane id=":J28_5_0" index="0" speed="6.51" length="9.03" shape="64.80,92.80 65.15,95.25 66.20,97.00 67.95,98.05 70.40,98.40"/>
    </edge>
    <edge id=":J28_6" function="internal">
        <lane id=":J28_6_0" index="0" speed="13.89" length="14.40" shape="64.80,92.80 64.80,107.20"/>
        <lane id=":J28_6_1" index="1" speed="13.89" length="14.40" shape="61.60,92.80 61.60,107.20"/>
    </edge>
    <edge id=":J3_0" function="internal">
        <lane id=":J3_0_0" index="0" speed="6.51" length="9.03" shape="81.60,92.80 81.95,95.25 83.00,97.00 84.75,98.05 87.20,98.40"/>
    </edge>
    <edge id=":J3_1" function="internal">
        <lane id=":J3_1_0" index="0" speed="8.00" length="14.19" shape="81.60,92.80 81.05,96.65 79.40,99.40 76.65,101.05 72.80,101.60"/>
    </edge>
    <edge id=":J3_2" function="internal">
        <lane id=":J3_2_0" index="0" speed="6.51" length="9.03" shape="72.80,98.40 75.25,98.05 77.00,97.00 78.05,95.25 78.40,92.80"/>
    </edge>
    <edge id=":J3_3" function="internal">
        <lane id=":J3_3_0" index="0" speed="13.89" length="14.40" shape="72.80,98.40 87.20,98.40"/>
    </edge>
    <edge id=":J31_0" function="internal">
        <lane id=":J31_0_0" index="0" speed="6.51" length="9.03" shape="55.20,13.60 54.85,11.15 53.80,9.40 52.05,8.35 49.60,8.00"/>
        <lane id=":J31_0_1" index="1" speed="8.00" length="14.19" shape="58.40,13.60 57.85,9.75 56.20,7.00 53.45,5.35 49.60,4.80"/>
    </edge>
    <edge id=":J31_2" function="internal">
        <lane id=":J31_2_0" index="0" speed="13.89" length="27.31" shape="58.40,13.60 57.90,6.54 56.80,0.00 55.70,-6.54 55.20,-13.60"/>
        <lane id=":J31_2_1" index="1" speed="13.89" length="27.31" shape="58.40,13.60 58.40,-13.60"/>
    </edge>
    <edge id=":J31_4" function="internal">
        <lane id=":J31_4_0" index="0" speed="13.89" length="27.20" shape="64.80,-13.60 64.80,13.60"/>
        <lane id=":J31_4_1" index="1" speed="13.89" length="27.20" shape="61.60,-13.60 61.60,13.60"/>
    </edge>
    <edge id=":J31_6" function="internal">
        <lane id=":J31_6_0" index="0" speed="10.41" length="24.73" shape="61.60,-13.60 60.85,-5.55 58.60,0.20 54.85,3.65 49.60,4.80"/>
        <lane id=":J31_6_1" index="1" speed="9.84" length="21.99" shape="61.60,-13.60 60.85,-6.95 58.60,-2.20 54.85,0.65 49.60,1.60"/>
    </edge>
    <edge id=":J31_8" function="internal">
        <lane id=":J31_8_0" index="0" speed="6.51" length="9.03" shape="49.60,-8.00 52.05,-8.35 53.80,-9.40 54.85,-11.15 55.20,-13.60"/>
        <lane id=":J31_8_1" index="1" speed="8.00" length="14.19" shape="49.60,-4.80 53.45,-5.35 56.20,-7.00 57.85,-9.75 58.40,-13.60"/>
    </edge>
    <edge id=":J31_10" function="internal">
        <lane id=":J31_10_0" index="0" speed="9.84" length="21.99" shape="49.60,-1.60 54.85,-0.65 58.60,2.20 60.85,6.95 61.60,13.60"/>
    </edge>
    <edge id=":J35_0" function="internal">
        <lane id=":J35_0_0" index="0" speed="6.51" length="9.03" shape="-111.60,-54.60 -111.95,-57.05 -113.00,-58.80 -114.75,-59.85 -117.20,-60.20"/>
    </edge>
    <edge id=":J35_1" function="internal">
        <lane id=":J35_1_0" index="0" speed="8.67" length="16.85" shape="-111.60,-54.60 -111.05,-59.85 -109.40,-63.60 -106.65,-65.85 -102.80,-66.60"/>
    </edge>
    <edge id=":J35_2" function="internal">
        <lane id=":J35_2_0" index="0" speed="6.51" length="9.03" shape="-102.80,-60.20 -105.25,-59.85 -107.00,-58.80 -108.05,-57.05 -108.40,-54.60"/>
    </edge>
    <edge id=":J35_3" function="internal">
        <lane id=":J35_3_0" index="0" speed="13.89" length="14.40" shape="-102.80,-60.20 -117.20,-60.20"/>
        <lane id=":J35_3_1" index="1" speed="13.89" length="14.40" shape="-102.80,-63.40 -117.20,-63.40"/>
    </edge>
    <edge id=":J35_5" function="internal">
        <lane id=":J35_5_0" index="0" speed="13.89" length="14.40" shape="-117.20,-69.80 -102.80,-69.80"/>
        <lane id=":J35_5_1" index="1" speed="13.89" length="14.40" shape="-117.20,-66.60 -102.80,-66.60"/>
    </edge>
    <edge id=":J35_7" function="internal">
        <lane id=":J35_7_0" index="0" speed="8.67" length="3.71" shape="-117.20,-66.60 -113.56,-65.89"/>
    </edge>
    <edge id=":J35_8" function="internal">
        <lane id=":J35_8_0" index="0" speed="8.67" length="13.14" shape="-113.56,-65.89 -113.35,-65.85 -110.60,-63.60 -108.95,-59.85 -108.40,-54.60"/>
    </edge>
    <edge id=":J36_0" function="internal">
        <lane id=":J36_0_0" index="0" speed="6.51" length="9.03" shape="55.20,-54.60 54.85,-57.05 53.80,-58.80 52.05,-59.85 49.60,-60.20"/>
    </edge>
    <edge id=":J36_1" function="internal">
        <lane id=":J36_1_0" index="0" speed="13.89" length="20.80" shape="55.20,-54.60 55.20,-75.40"/>
        <lane id=":J36_1_1" index="1" speed="13.89" length="20.80" shape="58.40,-54.60 58.40,-75.40"/>
    </edge>
    <edge id=":J36_3" function="internal">
        <lane id=":J36_3_0" index="0" speed="13.89" length="20.80" shape="64.80,-75.40 64.80,-54.60"/>
        <lane id=":J36_3_1" index="1" speed="13.89" length="20.80" shape="61.60,-75.40 61.60,-54.60"/>
    </edge>
    <edge id=":J36_5" function="internal">
        <lane id=":J36_5_0" index="0" speed="9.26" length="5.01" shape="61.60,-75.40 60.89,-70.44"/>
    </edge>
    <edge id=":J36_8" function="internal">
        <lane id=":J36_8_0" index="0" speed="9.26" length="14.34" shape="60.89,-70.44 60.85,-70.15 58.60,-66.40 54.85,-64.15 49.60,-63.40"/>
    </edge>
    <edge id=":J36_6" function="internal">
        <lane id=":J36_6_0" index="0" speed="6.51" length="9.03" shape="49.60,-69.80 52.05,-70.15 53.80,-71.20 54.85,-72.95 55.20,-75.40"/>
    </edge>
    <edge id=":J36_7" function="internal">
        <lane id=":J36_7_0" index="0" speed="9.26" length="19.35" shape="49.60,-66.60 54.85,-65.85 58.60,-63.60 60.85,-59.85 61.60,-54.60"/>
    </edge>
    <edge id=":J38_0" function="internal">
        <lane id=":J38_0_0" index="0" speed="5.74" length="6.79" shape="-1.60,-10.80 -1.95,-11.94 -3.00,-12.75 -4.75,-13.24 -7.20,-13.40"/>
    </edge>
    <edge id=":J38_1" function="internal">
        <lane id=":J38_1_0" index="0" speed="13.89" length="11.40" shape="-1.60,-10.80 -1.60,-22.20"/>
    </edge>
    <edge id=":J38_2" function="internal">
        <lane id=":J38_2_0" index="0" speed="13.89" length="11.40" shape="1.60,-22.20 1.60,-10.80"/>
    </edge>
    <edge id=":J38_3" function="internal">
        <lane id=":J38_3_0" index="0" speed="8.00" length="4.07" shape="1.60,-22.20 1.05,-18.35 0.96,-18.20"/>
    </edge>
    <edge id=":J38_6" function="internal">
        <lane id=":J38_6_0" index="0" speed="8.00" length="10.13" shape="0.96,-18.20 -0.60,-15.60 -3.35,-13.95 -7.20,-13.40"/>
    </edge>
    <edge id=":J38_4" function="internal">
        <lane id=":J38_4_0" index="0" speed="6.51" length="9.03" shape="-7.20,-16.60 -4.75,-16.95 -3.00,-18.00 -1.95,-19.75 -1.60,-22.20"/>
    </edge>
    <edge id=":J38_5" function="internal">
        <lane id=":J38_5_0" index="0" speed="7.37" length="11.87" shape="-7.20,-16.60 -3.35,-16.24 -0.60,-15.15 1.05,-13.34 1.60,-10.80"/>
    </edge>
    <edge id=":J40_0" function="internal">
        <lane id=":J40_0_0" index="0" speed="6.08" length="7.74" shape="-1.60,-26.80 -1.30,-28.90 -0.40,-30.40 1.10,-31.30 3.20,-31.60"/>
    </edge>
    <edge id=":J40_1" function="internal">
        <lane id=":J40_1_0" index="0" speed="3.90" length="2.58" shape="3.20,-28.40 2.50,-28.30 2.00,-28.00 1.70,-27.50 1.60,-26.80"/>
    </edge>
    <edge id=":J41_0" function="internal">
        <lane id=":J41_0_0" index="0" speed="6.51" length="9.03" shape="55.20,-22.80 54.85,-25.25 53.80,-27.00 52.05,-28.05 49.60,-28.40"/>
    </edge>
    <edge id=":J41_1" function="internal">
        <lane id=":J41_1_0" index="0" speed="13.89" length="14.40" shape="55.20,-22.80 55.20,-37.20"/>
        <lane id=":J41_1_1" index="1" speed="13.89" length="14.40" shape="58.40,-22.80 58.40,-37.20"/>
    </edge>
    <edge id=":J41_3" function="internal">
        <lane id=":J41_3_0" index="0" speed="8.67" length="3.71" shape="58.40,-22.80 59.11,-26.44"/>
    </edge>
    <edge id=":J41_14" function="internal">
        <lane id=":J41_14_0" index="0" speed="8.67" length="13.14" shape="59.11,-26.44 59.15,-26.65 61.40,-29.40 65.15,-31.05 70.40,-31.60"/>
    </edge>
    <edge id=":J41_4" function="internal">
        <lane id=":J41_4_0" index="0" speed="6.51" length="9.03" shape="70.40,-28.40 67.95,-28.05 66.20,-27.00 65.15,-25.25 64.80,-22.80"/>
    </edge>
    <edge id=":J41_5" function="internal">
        <lane id=":J41_5_0" index="0" speed="13.89" length="20.80" shape="70.40,-28.40 49.60,-28.40"/>
    </edge>
    <edge id=":J41_6" function="internal">
        <lane id=":J41_6_0" index="0" speed="8.67" length="5.56" shape="70.40,-28.40 65.15,-28.95 64.89,-29.06"/>
    </edge>
    <edge id=":J41_15" function="internal">
        <lane id=":J41_15_0" index="0" speed="8.67" length="11.29" shape="64.89,-29.06 61.40,-30.60 59.15,-33.35 58.40,-37.20"/>
    </edge>
    <edge id=":J41_7" function="internal">
        <lane id=":J41_7_0" index="0" speed="6.51" length="9.03" shape="64.80,-37.20 65.15,-34.75 66.20,-33.00 67.95,-31.95 70.40,-31.60"/>
    </edge>
    <edge id=":J41_8" function="internal">
        <lane id=":J41_8_0" index="0" speed="13.89" length="14.40" shape="64.80,-37.20 64.80,-22.80"/>
        <lane id=":J41_8_1" index="1" speed="13.89" length="14.40" shape="61.60,-37.20 61.60,-22.80"/>
    </edge>
    <edge id=":J41_10" function="internal">
        <lane id=":J41_10_0" index="0" speed="8.67" length="3.71" shape="61.60,-37.20 60.89,-33.56"/>
    </edge>
    <edge id=":J41_16" function="internal">
        <lane id=":J41_16_0" index="0" speed="8.67" length="13.14" shape="60.89,-33.56 60.85,-33.35 58.60,-30.60 54.85,-28.95 49.60,-28.40"/>
    </edge>
    <edge id=":J41_11" function="internal">
        <lane id=":J41_11_0" index="0" speed="6.51" length="9.03" shape="49.60,-31.60 52.05,-31.95 53.80,-33.00 54.85,-34.75 55.20,-37.20"/>
    </edge>
    <edge id=":J41_12" function="internal">
        <lane id=":J41_12_0" index="0" speed="13.89" length="20.80" shape="49.60,-31.60 70.40,-31.60"/>
    </edge>
    <edge id=":J41_13" function="internal">
        <lane id=":J41_13_0" index="0" speed="8.67" length="5.56" shape="49.60,-31.60 54.85,-31.05 55.11,-30.94"/>
    </edge>
    <edge id=":J41_17" function="internal">
        <lane id=":J41_17_0" index="0" speed="8.67" length="11.29" shape="55.11,-30.94 58.60,-29.40 60.85,-26.65 61.60,-22.80"/>
    </edge>
    <edge id=":J42_0" function="internal">
        <lane id=":J42_0_0" index="0" speed="13.89" length="14.40" shape="55.20,127.20 55.20,112.80"/>
        <lane id=":J42_0_1" index="1" speed="13.89" length="14.40" shape="58.40,127.20 58.40,112.80"/>
    </edge>
    <edge id=":J42_2" function="internal">
        <lane id=":J42_2_0" index="0" speed="8.67" length="3.71" shape="58.40,127.20 59.11,123.56"/>
    </edge>
    <edge id=":J42_8" function="internal">
        <lane id=":J42_8_0" index="0" speed="8.67" length="13.14" shape="59.11,123.56 59.15,123.35 61.40,120.60 65.15,118.95 70.40,118.40"/>
    </edge>
    <edge id=":J42_3" function="internal">
        <lane id=":J42_3_0" index="0" speed="6.51" length="9.03" shape="70.40,121.60 67.95,121.95 66.20,123.00 65.15,124.75 64.80,127.20"/>
    </edge>
    <edge id=":J42_4" function="internal">
        <lane id=":J42_4_0" index="0" speed="8.67" length="16.85" shape="70.40,121.60 65.15,121.05 61.40,119.40 59.15,116.65 58.40,112.80"/>
    </edge>
    <edge id=":J42_5" function="internal">
        <lane id=":J42_5_0" index="0" speed="6.51" length="9.03" shape="64.80,112.80 65.15,115.25 66.20,117.00 67.95,118.05 70.40,118.40"/>
    </edge>
    <edge id=":J42_6" function="internal">
        <lane id=":J42_6_0" index="0" speed="13.89" length="14.40" shape="64.80,112.80 64.80,127.20"/>